@<TRIPOS>MOLECULE
*****
 50 53 0 0 0
SMALL
GASTEIGER

@<TRIPOS>ATOM
     1 C         -0.264393   -1.401797   1.654046 C.3        1 UNL1     0.1889
     2 C         -0.450036   -0.985977   0.16994 C.3        1 UNL1     0.1342
     3 C         -1.908909   -0.960585   -0.311213 C.3        1 UNL1     0.1174
     4 C         -2.765619   -2.053004   0.333603 C.3        1 UNL1     0.1456
     5 C         -2.559672   -2.14249   1.856738 C.3        1 UNL1     0.2326
     6 O         -1.182095   -2.365939   2.148664 O.3        1 UNL1     -0.3076
     7 O         -3.11722   -1.028184   2.577004 O.3        1 UNL1     -0.4605
     8 C         -3.580767   -1.300941   3.851466 C.ar        1 UNL1     0.1310
     9 C         -4.377781   -2.39437   4.207111 C.ar        1 UNL1     0.0226
     10 C         -4.783262   -2.593853   5.532137 C.ar        1 UNL1     0.1343
     11 C         -4.38137   -1.71691   6.538762 C.ar        1 UNL1     0.1007
     12 C         -3.619528   -0.598803   6.189167 C.ar        1 UNL1     0.1389
     13 C         -3.214153   -0.397002   4.856358 C.ar        1 UNL1     0.0229
     14 C         -4.710796   -1.925905   7.967731 C.2        1 UNL1     0.1740
     15 C         -4.013715   -1.014589   8.934754 C.3        1 UNL1     0.0520
     16 C         -3.974831   0.384569   8.335754 C.3        1 UNL1     0.1322
     17 O         -3.259756   0.385274   7.080471 O.3        1 UNL1     -0.4828
     18 C         -5.34128   1.072497   8.287805 C.ar        1 UNL1     -0.0067
     19 C         -5.759153   1.700276   7.096382 C.ar        1 UNL1     -0.0516
     20 C         -6.981937   2.379038   7.032783 C.ar        1 UNL1     -0.0198
     21 C         -7.790676   2.443335   8.153334 C.ar        1 UNL1     0.1169
     22 C         -7.421924   1.806613   9.331233 C.ar        1 UNL1     -0.0198
     23 C         -6.207713   1.112111   9.389675 C.ar        1 UNL1     -0.0516
     24 O         -8.956751   3.145346   8.064726 O.3        1 UNL1     -0.5068
     25 O         -5.439909   -2.829442   8.368354 O.2        1 UNL1     -0.2917
     26 O         -5.560905   -3.679289   5.812645 O.3        1 UNL1     -0.5058
     27 O         -0.135408   -0.299683   2.538068 O.3        1 UNL1     -0.3648
     28 O         0.258182   -1.926057   -0.659146 O.3        1 UNL1     -0.3841
     29 O         -2.47026   0.344772   -0.159357 O.3        1 UNL1     -0.3863
     30 O         -2.429908   -3.32799   -0.255802 O.3        1 UNL1     -0.3829
     31 H         0.702595   -1.912707   1.717159 H        1 UNL1     0.0937
     32 H         0.0   0.0   0.0 H        1 UNL1     0.0671
     33 H         -1.908644   -1.154031   -1.393017 H        1 UNL1     0.0649
     34 H         -3.825108   -1.871065   0.121983 H        1 UNL1     0.0683
     35 H         -3.098436   -3.054324   2.143393 H        1 UNL1     0.1085
     36 H         -4.676802   -3.142212   3.48086 H        1 UNL1     0.0691
     37 H         -2.622305   0.481921   4.609976 H        1 UNL1     0.0691
     38 H         -3.002673   -1.406392   9.089062 H        1 UNL1     0.0385
     39 H         -4.540416   -1.039473   9.89483 H        1 UNL1     0.0385
     40 H         -3.360366   1.004999   9.002102 H        1 UNL1     0.0789
     41 H         -5.13818   1.67195   6.205741 H        1 UNL1     0.0623
     42 H         -7.28756   2.869243   6.111749 H        1 UNL1     0.0654
     43 H         -8.054659   1.837902   10.210197 H        1 UNL1     0.0654
     44 H         -5.956167   0.617414   10.322865 H        1 UNL1     0.0623
     45 H         -8.743349   4.069482   7.857003 H        1 UNL1     0.2921
     46 H         -5.12992   -4.218518   6.494478 H        1 UNL1     0.2922
     47 H         0.591662   0.272638   2.255795 H        1 UNL1     0.2126
     48 H         1.202359   -1.853688   -0.420348 H        1 UNL1     0.2101
     49 H         -2.063506   0.954918   -0.79502 H        1 UNL1     0.2100
     50 H         -2.701814   -3.306139   -1.196708 H        1 UNL1     0.2102
@<TRIPOS>BOND
     1     1     2    1
     2     1     6    1
     3     2     3    1
     4     3     4    1
     5     3    29    1
     6     3    33    1
     7     4     5    1
     8     5     6    1
     9     5     7    1
    10     5    35    1
    11     7     8    1
    12     8     9   ar
    13     8    13   ar
    14     9    10   ar
    15     9    36    1
    16    10    11   ar
    17    10    26    1
    18    11    12   ar
    19    11    14    1
    20    12    13   ar
    21    12    17    1
    22    13    37    1
    23    14    15    1
    24    14    25    2
    25    15    16    1
    26    15    38    1
    27    15    39    1
    28    16    17    1
    29    16    18    1
    30    16    40    1
    31    18    19   ar
    32    18    23   ar
    33    19    20   ar
    34    19    41    1
    35    20    21   ar
    36    20    42    1
    37    21    22   ar
    38    21    24    1
    39    22    23   ar
    40    22    43    1
    41    23    44    1
    42    24    45    1
    43    26    46    1
    44    27    47    1
    45    28    48    1
    46    29    49    1
    47    30    50    1
    48     1    31    1
    49     1    27    1
    50     2    32    1
    51     2    28    1
    52     4    34    1
    53     4    30    1
