@<TRIPOS>MOLECULE
*****
 50 53 0 0 0
SMALL
GASTEIGER

@<TRIPOS>ATOM
     1 C         -0.171322   -1.238209   1.791171 C.3        1 UNL1     0.1889
     2 C         -0.372219   -0.995768   0.271038 C.3        1 UNL1     0.1342
     3 C         -1.82283   -1.137839   -0.214768 C.3        1 UNL1     0.1174
     4 C         -2.597453   -2.222191   0.538396 C.3        1 UNL1     0.1456
     5 C         -2.402694   -2.135436   2.063161 C.3        1 UNL1     0.2326
     6 O         -1.015192   -2.215968   2.381312 O.3        1 UNL1     -0.3076
     7 O         -3.055307   -1.000391   2.66073 O.3        1 UNL1     -0.4605
     8 C         -3.510024   -1.174817   3.955464 C.ar        1 UNL1     0.1310
     9 C         -4.221397   -2.285591   4.421759 C.ar        1 UNL1     0.0226
     10 C         -4.624642   -2.377429   5.759243 C.ar        1 UNL1     0.1343
     11 C         -4.305255   -1.370624   6.669284 C.ar        1 UNL1     0.1007
     12 C         -3.630973   -0.237582   6.20631 C.ar        1 UNL1     0.1389
     13 C         -3.227931   -0.144268   4.860843 C.ar        1 UNL1     0.0229
     14 C         -4.633108   -1.454913   8.111352 C.2        1 UNL1     0.1740
     15 C         -4.021779   -0.394448   8.979246 C.3        1 UNL1     0.0520
     16 C         -4.087678   0.933011   8.236637 C.3        1 UNL1     0.1322
     17 O         -3.360799   0.859983   6.990289 O.3        1 UNL1     -0.4828
     18 C         -5.503941   1.500085   8.112735 C.ar        1 UNL1     -0.0067
     19 C         -5.96323   1.947895   6.857055 C.ar        1 UNL1     -0.0516
     20 C         -7.235465   2.515429   6.71818 C.ar        1 UNL1     -0.0198
     21 C         -8.053238   2.647171   7.826205 C.ar        1 UNL1     0.1169
     22 C         -7.64213   2.185023   9.069687 C.ar        1 UNL1     -0.0198
     23 C         -6.377166   1.600622   9.20533 C.ar        1 UNL1     -0.0516
     24 O         -9.270636   3.23926   7.659548 O.3        1 UNL1     -0.5068
     25 O         -5.29243   -2.367295   8.602616 O.2        1 UNL1     -0.2917
     26 O         -5.316495   -3.486576   6.150034 O.3        1 UNL1     -0.5058
     27 O         -0.140546   -0.043087   2.555058 O.3        1 UNL1     -0.3648
     28 O         0.417996   -1.957371   -0.452554 O.3        1 UNL1     -0.3841
     29 O         -2.487831   0.126976   -0.202528 O.3        1 UNL1     -0.3863
     30 O         -2.15471   -3.520659   0.08712 O.3        1 UNL1     -0.3829
     31 H         0.832403   -1.660515   1.910633 H        1 UNL1     0.0937
     32 H         0.0   0.0   0.0 H        1 UNL1     0.0671
     33 H         -1.794674   -1.442468   -1.270291 H        1 UNL1     0.0649
     34 H         -3.665525   -2.148911   0.305478 H        1 UNL1     0.0683
     35 H         -2.870597   -3.052644   2.442206 H        1 UNL1     0.1085
     36 H         -4.451693   -3.126848   3.777267 H        1 UNL1     0.0691
     37 H         -2.705211   0.748801   4.525158 H        1 UNL1     0.0691
     38 H         -2.984554   -0.685433   9.176777 H        1 UNL1     0.0385
     39 H         -4.555633   -0.361101   9.935104 H        1 UNL1     0.0385
     40 H         -3.532137   1.667064   8.835854 H        1 UNL1     0.0789
     41 H         -5.336809   1.864003   5.973761 H        1 UNL1     0.0623
     42 H         -7.573547   2.867838   5.746831 H        1 UNL1     0.0654
     43 H         -8.280442   2.26954   9.94108 H        1 UNL1     0.0654
     44 H         -6.092706   1.240918   10.189475 H        1 UNL1     0.0623
     45 H         -9.130032   4.14364   7.335443 H        1 UNL1     0.2921
     46 H         -4.850845   -3.916061   6.884966 H        1 UNL1     0.2922
     47 H         0.544759   0.551397   2.219193 H        1 UNL1     0.2126
     48 H         1.349211   -1.796011   -0.206518 H        1 UNL1     0.2101
     49 H         -2.117703   0.701108   -0.891855 H        1 UNL1     0.2100
     50 H         -2.411584   -3.616731   -0.853358 H        1 UNL1     0.2102
@<TRIPOS>BOND
     1     1     2    1
     2     1     6    1
     3     2     3    1
     4     3     4    1
     5     3    29    1
     6     3    33    1
     7     4     5    1
     8     5     6    1
     9     5     7    1
    10     5    35    1
    11     7     8    1
    12     8     9   ar
    13     8    13   ar
    14     9    10   ar
    15     9    36    1
    16    10    11   ar
    17    10    26    1
    18    11    12   ar
    19    11    14    1
    20    12    13   ar
    21    12    17    1
    22    13    37    1
    23    14    15    1
    24    14    25    2
    25    15    16    1
    26    15    38    1
    27    15    39    1
    28    16    17    1
    29    16    18    1
    30    16    40    1
    31    18    19   ar
    32    18    23   ar
    33    19    20   ar
    34    19    41    1
    35    20    21   ar
    36    20    42    1
    37    21    22   ar
    38    21    24    1
    39    22    23   ar
    40    22    43    1
    41    23    44    1
    42    24    45    1
    43    26    46    1
    44    27    47    1
    45    28    48    1
    46    29    49    1
    47    30    50    1
    48     1    31    1
    49     1    27    1
    50     2    32    1
    51     2    28    1
    52     4    34    1
    53     4    30    1
