@<TRIPOS>MOLECULE
*****
 50 53 0 0 0
SMALL
GASTEIGER

@<TRIPOS>ATOM
     1 C         -0.330195   -1.327241   1.702999 C.3        1 UNL1     0.1889
     2 C         -0.461606   -0.975603   0.196672 C.3        1 UNL1     0.1342
     3 C         -1.902685   -0.96461   -0.335902 C.3        1 UNL1     0.1174
     4 C         -2.787867   -2.024043   0.325287 C.3        1 UNL1     0.1456
     5 C         -2.635556   -2.048052   1.857145 C.3        1 UNL1     0.2326
     6 O         -1.270335   -2.264786   2.206528 O.3        1 UNL1     -0.3076
     7 O         -3.21109   -0.900939   2.508461 O.3        1 UNL1     -0.4605
     8 C         -3.719887   -1.115747   3.776732 C.ar        1 UNL1     0.1310
     9 C         -4.53506   -2.189134   4.151746 C.ar        1 UNL1     0.0226
     10 C         -4.987142   -2.32878   5.469329 C.ar        1 UNL1     0.1343
     11 C         -4.615083   -1.410445   6.450181 C.ar        1 UNL1     0.1007
     12 C         -3.835124   -0.311987   6.078912 C.ar        1 UNL1     0.1389
     13 C         -3.382867   -0.170364   4.753455 C.ar        1 UNL1     0.0229
     14 C         -4.994796   -1.555382   7.874599 C.2        1 UNL1     0.1740
     15 C         -4.326162   -0.605716   8.824657 C.3        1 UNL1     0.0520
     16 C         -4.25848   0.765756   8.167055 C.3        1 UNL1     0.1322
     17 O         -3.500558   0.708523   6.938499 O.3        1 UNL1     -0.4828
     18 C         -5.618423   1.456841   8.04183 C.ar        1 UNL1     -0.0067
     19 C         -5.998736   2.018247   6.805546 C.ar        1 UNL1     -0.0516
     20 C         -7.214699   2.69856   6.669271 C.ar        1 UNL1     -0.0198
     21 C         -8.053884   2.830369   7.761161 C.ar        1 UNL1     0.1169
     22 C         -7.722355   2.25952   8.983068 C.ar        1 UNL1     -0.0198
     23 C         -6.514923   1.563244   9.114845 C.ar        1 UNL1     -0.0516
     24 O         -9.212308   3.532186   7.600211 O.3        1 UNL1     -0.5068
     25 O         -5.742551   -2.437389   8.288615 O.2        1 UNL1     -0.2917
     26 O         -5.780319   -3.397548   5.769648 O.3        1 UNL1     -0.5058
     27 O         -0.225392   -0.188274   2.542378 O.3        1 UNL1     -0.3648
     28 O         0.269339   -1.954075   -0.565575 O.3        1 UNL1     -0.3841
     29 O         -2.461102   0.348639   -0.260529 O.3        1 UNL1     -0.3863
     30 O         -2.439551   -3.324984   -0.19617 O.3        1 UNL1     -0.3829
     31 H         0.630917   -1.839274   1.822016 H        1 UNL1     0.0937
     32 H         0.0   0.0   0.0 H        1 UNL1     0.0671
     33 H         -1.865965   -1.204975   -1.407628 H        1 UNL1     0.0649
     34 H         -3.838241   -1.846716   0.069021 H        1 UNL1     0.0683
     35 H         -3.189447   -2.944101   2.16403 H        1 UNL1     0.1085
     36 H         -4.813225   -2.966689   3.448786 H        1 UNL1     0.0691
     37 H         -2.777754   0.694384   4.489748 H        1 UNL1     0.0691
     38 H         -3.323346   -0.994776   9.030859 H        1 UNL1     0.0385
     39 H         -4.885787   -0.586351   9.766052 H        1 UNL1     0.0385
     40 H         -3.663743   1.41204   8.826695 H        1 UNL1     0.0789
     41 H         -5.353403   1.936336   5.935784 H        1 UNL1     0.0623
     42 H         -7.491261   3.137357   5.71377 H        1 UNL1     0.0654
     43 H         -8.3791   2.343787   9.840678 H        1 UNL1     0.0654
     44 H         -6.292784   1.120927   10.081207 H        1 UNL1     0.0623
     45 H         -8.98725   4.439709   7.338548 H        1 UNL1     0.2921
     46 H         -5.375563   -3.909112   6.4879 H        1 UNL1     0.2922
     47 H         0.51714   0.365729   2.263836 H        1 UNL1     0.2126
     48 H         1.202213   -1.887794   -0.284355 H        1 UNL1     0.2101
     49 H         -2.022971   0.930837   -0.901529 H        1 UNL1     0.2100
     50 H         -2.673218   -3.340966   -1.14741 H        1 UNL1     0.2102
@<TRIPOS>BOND
     1     1     2    1
     2     1     6    1
     3     2     3    1
     4     3     4    1
     5     3    29    1
     6     3    33    1
     7     4     5    1
     8     5     6    1
     9     5     7    1
    10     5    35    1
    11     7     8    1
    12     8     9   ar
    13     8    13   ar
    14     9    10   ar
    15     9    36    1
    16    10    11   ar
    17    10    26    1
    18    11    12   ar
    19    11    14    1
    20    12    13   ar
    21    12    17    1
    22    13    37    1
    23    14    15    1
    24    14    25    2
    25    15    16    1
    26    15    38    1
    27    15    39    1
    28    16    17    1
    29    16    18    1
    30    16    40    1
    31    18    19   ar
    32    18    23   ar
    33    19    20   ar
    34    19    41    1
    35    20    21   ar
    36    20    42    1
    37    21    22   ar
    38    21    24    1
    39    22    23   ar
    40    22    43    1
    41    23    44    1
    42    24    45    1
    43    26    46    1
    44    27    47    1
    45    28    48    1
    46    29    49    1
    47    30    50    1
    48     1    31    1
    49     1    27    1
    50     2    32    1
    51     2    28    1
    52     4    34    1
    53     4    30    1
