@<TRIPOS>MOLECULE
*****
 50 53 0 0 0
SMALL
GASTEIGER

@<TRIPOS>ATOM
     1 C         0.255506   1.992961   -0.856521 C.3        1 UNL1     0.1889
     2 C         0.658642   0.867152   0.133417 C.3        1 UNL1     0.1342
     3 C         0.649198   1.280633   1.613082 C.3        1 UNL1     0.1174
     4 C         1.079534   2.734123   1.825909 C.3        1 UNL1     0.1456
     5 C         0.386999   3.703535   0.850718 C.3        1 UNL1     0.2326
     6 O         0.647755   3.308757   -0.494282 O.3        1 UNL1     -0.3076
     7 O         -1.013705   3.888802   1.124628 O.3        1 UNL1     -0.4605
     8 C         -1.595323   2.957228   1.965709 C.ar        1 UNL1     0.1310
     9 C         -0.914986   1.936349   2.638203 C.ar        1 UNL1     0.0226
     10 C         -1.59254   1.05027   3.484186 C.ar        1 UNL1     0.1343
     11 C         -2.964442   1.178522   3.696971 C.ar        1 UNL1     0.1007
     12 C         -3.661517   2.168416   2.999132 C.ar        1 UNL1     0.1389
     13 C         -2.980444   3.057577   2.14651 C.ar        1 UNL1     0.0229
     14 C         -3.715876   0.322999   4.644379 C.2        1 UNL1     0.1740
     15 C         -5.130899   0.74212   4.915666 C.3        1 UNL1     0.0520
     16 C         -5.757629   1.199056   3.60556 C.3        1 UNL1     0.1322
     17 O         -5.028267   2.315581   3.050157 O.3        1 UNL1     -0.4828
     18 C         -6.021535   0.059565   2.618323 C.ar        1 UNL1     -0.0067
     19 C         -6.515805   0.358271   1.331977 C.ar        1 UNL1     -0.0516
     20 C         -6.812669   -0.662951   0.421516 C.ar        1 UNL1     -0.0198
     21 C         -6.626989   -1.984194   0.787122 C.ar        1 UNL1     0.1169
     22 C         -6.110115   -2.308616   2.034692 C.ar        1 UNL1     -0.0198
     23 C         -5.795766   -1.286834   2.938685 C.ar        1 UNL1     -0.0516
     24 O         -6.962804   -2.953044   -0.112299 O.3        1 UNL1     -0.5068
     25 O         -3.214292   -0.624448   5.243748 O.2        1 UNL1     -0.2917
     26 O         -0.870815   0.075826   4.109612 O.3        1 UNL1     -0.5058
     27 O         -1.107582   1.941467   -1.246554 O.3        1 UNL1     -0.3648
     28 O         1.99618   0.438802   -0.183147 O.3        1 UNL1     -0.3841
     29 O         -0.612492   0.983256   2.214612 O.3        1 UNL1     -0.3863
     30 O         2.508732   2.836336   1.645256 O.3        1 UNL1     -0.3829
     31 H         0.808497   1.807035   -1.783727 H        1 UNL1     0.0937
     32 H         0.0   0.0   0.0 H        1 UNL1     0.0671
     33 H         1.379707   0.652284   2.141528 H        1 UNL1     0.0649
     34 H         0.863788   3.041129   2.855279 H        1 UNL1     0.0683
     35 H         0.907711   4.65606   1.010199 H        1 UNL1     0.1085
     36 H         0.160162   1.818841   2.558387 H        1 UNL1     0.0691
     37 H         -3.546312   3.818865   1.61385 H        1 UNL1     0.0691
     38 H         -5.100412   1.558728   5.644876 H        1 UNL1     0.0385
     39 H         -5.674024   -0.096766   5.36407 H        1 UNL1     0.0385
     40 H         -6.747396   1.610099   3.846232 H        1 UNL1     0.0789
     41 H         -6.678879   1.387009   1.024155 H        1 UNL1     0.0623
     42 H         -7.20449   -0.420287   -0.563168 H        1 UNL1     0.0654
     43 H         -5.946615   -3.339359   2.325803 H        1 UNL1     0.0654
     44 H         -5.383863   -1.576139   3.900706 H        1 UNL1     0.0623
     45 H         -7.339885   -2.524817   -0.897887 H        1 UNL1     0.2921
     46 H         -1.46023   -0.455183   4.66821 H        1 UNL1     0.2922
     47 H         -1.538703   1.168656   -0.855713 H        1 UNL1     0.2126
     48 H         2.495834   0.438834   0.655947 H        1 UNL1     0.2101
     49 H         -1.309725   0.990207   1.539621 H        1 UNL1     0.2100
     50 H         2.940927   2.366133   2.388108 H        1 UNL1     0.2102
@<TRIPOS>BOND
     1     1     2    1
     2     1     6    1
     3     2     3    1
     4     3     4    1
     5     3    29    1
     6     3    33    1
     7     4     5    1
     8     5     6    1
     9     5     7    1
    10     5    35    1
    11     7     8    1
    12     8     9   ar
    13     8    13   ar
    14     9    10   ar
    15     9    36    1
    16    10    11   ar
    17    10    26    1
    18    11    12   ar
    19    11    14    1
    20    12    13   ar
    21    12    17    1
    22    13    37    1
    23    14    15    1
    24    14    25    2
    25    15    16    1
    26    15    38    1
    27    15    39    1
    28    16    17    1
    29    16    18    1
    30    16    40    1
    31    18    19   ar
    32    18    23   ar
    33    19    20   ar
    34    19    41    1
    35    20    21   ar
    36    20    42    1
    37    21    22   ar
    38    21    24    1
    39    22    23   ar
    40    22    43    1
    41    23    44    1
    42    24    45    1
    43    26    46    1
    44    27    47    1
    45    28    48    1
    46    29    49    1
    47    30    50    1
    48     1    31    1
    49     1    27    1
    50     2    32    1
    51     2    28    1
    52     4    34    1
    53     4    30    1
