@<TRIPOS>MOLECULE
*****
 50 53 0 0 0
SMALL
GASTEIGER

@<TRIPOS>ATOM
     1 C         -0.330226   -1.327152   1.703062 C.3        1 UNL1     0.1889
     2 C         -0.461598   -0.975599   0.196712 C.3        1 UNL1     0.1342
     3 C         -1.902663   -0.964653   -0.335903 C.3        1 UNL1     0.1174
     4 C         -2.78785   -2.024062   0.325319 C.3        1 UNL1     0.1456
     5 C         -2.635582   -2.047985   1.857183 C.3        1 UNL1     0.2326
     6 O         -1.270368   -2.264682   2.206616 O.3        1 UNL1     -0.3076
     7 O         -3.211149   -0.900844   2.508419 O.3        1 UNL1     -0.4605
     8 C         -3.71998   -1.115589   3.776687 C.ar        1 UNL1     0.1310
     9 C         -4.535149   -2.188966   4.151737 C.ar        1 UNL1     0.0226
     10 C         -4.987267   -2.328546   5.469314 C.ar        1 UNL1     0.1343
     11 C         -4.615247   -1.410152   6.450127 C.ar        1 UNL1     0.1007
     12 C         -3.835293   -0.311705   6.07882 C.ar        1 UNL1     0.1389
     13 C         -3.383   -0.170148   4.753368 C.ar        1 UNL1     0.0229
     14 C         -4.994999   -1.555016   7.874542 C.2        1 UNL1     0.1740
     15 C         -4.326405   -0.605289   8.824567 C.3        1 UNL1     0.0520
     16 C         -4.258722   0.766148   8.166891 C.3        1 UNL1     0.1322
     17 O         -3.500764   0.708858   6.938361 O.3        1 UNL1     -0.4828
     18 C         -5.618671   1.457208   8.04159 C.ar        1 UNL1     -0.0067
     19 C         -5.998957   2.018541   6.805265 C.ar        1 UNL1     -0.0516
     20 C         -7.214925   2.69883   6.668917 C.ar        1 UNL1     -0.0198
     21 C         -8.054142   2.830688   7.760776 C.ar        1 UNL1     0.1169
     22 C         -7.72264   2.25991   8.982725 C.ar        1 UNL1     -0.0198
     23 C         -6.515203   1.563657   9.114574 C.ar        1 UNL1     -0.0516
     24 O         -9.212571   3.532481   7.599755 O.3        1 UNL1     -0.5068
     25 O         -5.742755   -2.437011   8.288586 O.2        1 UNL1     -0.2917
     26 O         -5.780438   -3.397308   5.76967 O.3        1 UNL1     -0.5058
     27 O         -0.225462   -0.188137   2.542382 O.3        1 UNL1     -0.3648
     28 O         0.269381   -1.954102   -0.56546 O.3        1 UNL1     -0.3841
     29 O         -2.461099   0.348592   -0.260618 O.3        1 UNL1     -0.3863
     30 O         -2.439501   -3.325027   -0.196057 O.3        1 UNL1     -0.3829
     31 H         0.63089   -1.839165   1.822135 H        1 UNL1     0.0937
     32 H         0.0   0.0   0.0 H        1 UNL1     0.0671
     33 H         -1.865909   -1.205077   -1.407615 H        1 UNL1     0.0649
     34 H         -3.838218   -1.846763   0.069014 H        1 UNL1     0.0683
     35 H         -3.18947   -2.944025   2.164101 H        1 UNL1     0.1085
     36 H         -4.813284   -2.966563   3.448812 H        1 UNL1     0.0691
     37 H         -2.777891   0.694594   4.489631 H        1 UNL1     0.0691
     38 H         -3.32359   -0.994325   9.030819 H        1 UNL1     0.0385
     39 H         -4.886057   -0.58588   9.765945 H        1 UNL1     0.0385
     40 H         -3.664013   1.412475   8.826513 H        1 UNL1     0.0789
     41 H         -5.353598   1.936591   5.935525 H        1 UNL1     0.0623
     42 H         -7.491465   3.137571   5.713384 H        1 UNL1     0.0654
     43 H         -8.379411   2.344216   9.840311 H        1 UNL1     0.0654
     44 H         -6.293085   1.121397   10.080966 H        1 UNL1     0.0623
     45 H         -8.987552   4.439682   7.336944 H        1 UNL1     0.2921
     46 H         -5.375394   -3.909167   6.48755 H        1 UNL1     0.2922
     47 H         0.517071   0.36586   2.263831 H        1 UNL1     0.2126
     48 H         1.202186   -1.888038   -0.283961 H        1 UNL1     0.2101
     49 H         -2.022899   0.930783   -0.901577 H        1 UNL1     0.2100
     50 H         -2.673141   -3.341065   -1.147302 H        1 UNL1     0.2102
@<TRIPOS>BOND
     1     1     2    1
     2     1     6    1
     3     2     3    1
     4     3     4    1
     5     3    29    1
     6     3    33    1
     7     4     5    1
     8     5     6    1
     9     5     7    1
    10     5    35    1
    11     7     8    1
    12     8     9   ar
    13     8    13   ar
    14     9    10   ar
    15     9    36    1
    16    10    11   ar
    17    10    26    1
    18    11    12   ar
    19    11    14    1
    20    12    13   ar
    21    12    17    1
    22    13    37    1
    23    14    15    1
    24    14    25    2
    25    15    16    1
    26    15    38    1
    27    15    39    1
    28    16    17    1
    29    16    18    1
    30    16    40    1
    31    18    19   ar
    32    18    23   ar
    33    19    20   ar
    34    19    41    1
    35    20    21   ar
    36    20    42    1
    37    21    22   ar
    38    21    24    1
    39    22    23   ar
    40    22    43    1
    41    23    44    1
    42    24    45    1
    43    26    46    1
    44    27    47    1
    45    28    48    1
    46    29    49    1
    47    30    50    1
    48     1    31    1
    49     1    27    1
    50     2    32    1
    51     2    28    1
    52     4    34    1
    53     4    30    1
