@<TRIPOS>MOLECULE
*****
 50 53 0 0 0
SMALL
GASTEIGER

@<TRIPOS>ATOM
     1 C         -0.311504   -1.372751   1.670127 C.3        1 UNL1     0.1889
     2 C         -0.457248   -0.981791   0.174851 C.3        1 UNL1     0.1342
     3 C         -1.903034   -0.960881   -0.344505 C.3        1 UNL1     0.1174
     4 C         -2.779483   -2.039976   0.296204 C.3        1 UNL1     0.1456
     5 C         -2.613482   -2.104038   1.825486 C.3        1 UNL1     0.2326
     6 O         -1.244636   -2.325991   2.156947 O.3        1 UNL1     -0.3076
     7 O         -3.186237   -0.976212   2.511985 O.3        1 UNL1     -0.4605
     8 C         -3.693801   -1.228473   3.773837 C.ar        1 UNL1     0.1310
     9 C         -4.504644   -2.31514   4.118785 C.ar        1 UNL1     0.0226
     10 C         -4.955773   -2.493428   5.432024 C.ar        1 UNL1     0.1343
     11 C         -4.587019   -1.601482   6.438153 C.ar        1 UNL1     0.1007
     12 C         -3.811488   -0.489997   6.097659 C.ar        1 UNL1     0.1389
     13 C         -3.360194   -0.309513   4.776603 C.ar        1 UNL1     0.0229
     14 C         -4.965726   -1.787768   7.858023 C.2        1 UNL1     0.1740
     15 C         -4.300532   -0.862476   8.834191 C.3        1 UNL1     0.0520
     16 C         -4.23843   0.527139   8.215265 C.3        1 UNL1     0.1322
     17 O         -3.480664   0.507333   6.98544 O.3        1 UNL1     -0.4828
     18 C         -5.601111   1.216113   8.10972 C.ar        1 UNL1     -0.0067
     19 C         -5.736846   2.362027   7.299368 C.ar        1 UNL1     -0.0516
     20 C         -6.956916   3.043753   7.217862 C.ar        1 UNL1     -0.0198
     21 C         -8.044251   2.594902   7.945915 C.ar        1 UNL1     0.1169
     22 C         -7.950888   1.450075   8.726616 C.ar        1 UNL1     -0.0198
     23 C         -6.736025   0.757514   8.793863 C.ar        1 UNL1     -0.0516
     24 O         -9.205555   3.30636   7.871072 O.3        1 UNL1     -0.5068
     25 O         -5.70989   -2.683961   8.247308 O.2        1 UNL1     -0.2917
     26 O         -5.74466   -3.573299   5.702431 O.3        1 UNL1     -0.5058
     27 O         -0.202257   -0.256076   2.538395 O.3        1 UNL1     -0.3648
     28 O         0.269477   -1.937652   -0.619444 O.3        1 UNL1     -0.3841
     29 O         -2.464239   0.348298   -0.229479 O.3        1 UNL1     -0.3863
     30 O         -2.432371   -3.325664   -0.262553 O.3        1 UNL1     -0.3829
     31 H         0.651984   -1.884974   1.767064 H        1 UNL1     0.0937
     32 H         0.0   0.0   0.0 H        1 UNL1     0.0671
     33 H         -1.875216   -1.172719   -1.422499 H        1 UNL1     0.0649
     34 H         -3.832562   -1.858969   0.054001 H        1 UNL1     0.0683
     35 H         -3.162241   -3.009483   2.113427 H        1 UNL1     0.1085
     36 H         -4.779971   -3.073779   3.394366 H        1 UNL1     0.0691
     37 H         -2.758557   0.564656   4.537113 H        1 UNL1     0.0691
     38 H         -3.296135   -1.253219   9.029213 H        1 UNL1     0.0385
     39 H         -4.859942   -0.871697   9.775867 H        1 UNL1     0.0385
     40 H         -3.646031   1.157017   8.89264 H        1 UNL1     0.0789
     41 H         -4.89577   2.739715   6.725265 H        1 UNL1     0.0623
     42 H         -7.045681   3.933055   6.598769 H        1 UNL1     0.0654
     43 H         -8.800307   1.081198   9.289046 H        1 UNL1     0.0654
     44 H         -6.701862   -0.139033   9.405322 H        1 UNL1     0.0623
     45 H         -9.042694   4.19704   8.221618 H        1 UNL1     0.2921
     46 H         -5.349665   -4.090392   6.422157 H        1 UNL1     0.2922
     47 H         0.52317   0.318127   2.255718 H        1 UNL1     0.2126
     48 H         1.215197   -1.814615   -0.409188 H        1 UNL1     0.2101
     49 H         -2.039513   0.946412   -0.864823 H        1 UNL1     0.2100
     50 H         -2.700325   -3.327167   -1.204843 H        1 UNL1     0.2102
@<TRIPOS>BOND
     1     1     2    1
     2     1     6    1
     3     2     3    1
     4     3     4    1
     5     3    29    1
     6     3    33    1
     7     4     5    1
     8     5     6    1
     9     5     7    1
    10     5    35    1
    11     7     8    1
    12     8     9   ar
    13     8    13   ar
    14     9    10   ar
    15     9    36    1
    16    10    11   ar
    17    10    26    1
    18    11    12   ar
    19    11    14    1
    20    12    13   ar
    21    12    17    1
    22    13    37    1
    23    14    15    1
    24    14    25    2
    25    15    16    1
    26    15    38    1
    27    15    39    1
    28    16    17    1
    29    16    18    1
    30    16    40    1
    31    18    19   ar
    32    18    23   ar
    33    19    20   ar
    34    19    41    1
    35    20    21   ar
    36    20    42    1
    37    21    22   ar
    38    21    24    1
    39    22    23   ar
    40    22    43    1
    41    23    44    1
    42    24    45    1
    43    26    46    1
    44    27    47    1
    45    28    48    1
    46    29    49    1
    47    30    50    1
    48     1    31    1
    49     1    27    1
    50     2    32    1
    51     2    28    1
    52     4    34    1
    53     4    30    1
