@<TRIPOS>MOLECULE
*****
 50 53 0 0 0
SMALL
GASTEIGER

@<TRIPOS>ATOM
     1 C         -0.629376   -2.007737   -0.586244 C.3        1 UNL1     0.1889
     2 C         -0.142275   -0.980582   0.470934 C.3        1 UNL1     0.1342
     3 C         1.149084   -1.377088   1.202808 C.3        1 UNL1     0.1174
     4 C         1.261409   -2.886247   1.432896 C.3        1 UNL1     0.1456
     5 C         0.923618   -3.702306   0.171822 C.3        1 UNL1     0.2326
     6 O         -0.387052   -3.373689   -0.283175 O.3        1 UNL1     -0.3076
     7 O         1.922219   -3.602914   -0.859798 O.3        1 UNL1     -0.4605
     8 C         1.780692   -2.545763   -1.740667 C.ar        1 UNL1     0.1310
     9 C         2.736876   -1.551366   -1.973445 C.ar        1 UNL1     0.0226
     10 C         2.506207   -0.528453   -2.900992 C.ar        1 UNL1     0.1343
     11 C         1.322344   -0.488598   -3.63633 C.ar        1 UNL1     0.1007
     12 C         0.342939   -1.45264   -3.38301 C.ar        1 UNL1     0.1389
     13 C         0.574028   -2.479551   -2.448407 C.ar        1 UNL1     0.0229
     14 C         1.061613   0.520669   -4.688734 C.2        1 UNL1     0.1740
     15 C         -0.158338   0.282068   -5.529174 C.3        1 UNL1     0.0520
     16 C         -1.277601   -0.21367   -4.623939 C.3        1 UNL1     0.1322
     17 O         -0.900886   -1.445801   -3.97048 O.3        1 UNL1     -0.4828
     18 C         -1.83057   0.859837   -3.683444 C.ar        1 UNL1     -0.0067
     19 C         -1.127219   2.071769   -3.526175 C.ar        1 UNL1     -0.0516
     20 C         -1.579947   3.05504   -2.638381 C.ar        1 UNL1     -0.0198
     21 C         -2.728035   2.835874   -1.898322 C.ar        1 UNL1     0.1169
     22 C         -3.460667   1.666584   -2.055962 C.ar        1 UNL1     -0.0198
     23 C         -3.018251   0.690927   -2.957304 C.ar        1 UNL1     -0.0516
     24 O         -3.117553   3.800233   -1.015889 O.3        1 UNL1     -0.5068
     25 O         1.820208   1.455523   -4.931771 O.2        1 UNL1     -0.2917
     26 O         3.478802   0.411469   -3.080408 O.3        1 UNL1     -0.5058
     27 O         -0.23383   -1.686898   -1.910401 O.3        1 UNL1     -0.3648
     28 O         -1.170279   -0.829371   1.467452 O.3        1 UNL1     -0.3841
     29 O         2.293492   -0.831037   0.5438 O.3        1 UNL1     -0.3863
     30 O         0.358135   -3.272591   2.491444 O.3        1 UNL1     -0.3829
     31 H         -1.722567   -1.940207   -0.607525 H        1 UNL1     0.0937
     32 H         0.0   0.0   0.0 H        1 UNL1     0.0671
     33 H         1.130755   -0.904844   2.194962 H        1 UNL1     0.0649
     34 H         2.273698   -3.139289   1.767024 H        1 UNL1     0.0683
     35 H         0.886485   -4.738881   0.529608 H        1 UNL1     0.1085
     36 H         3.699885   -1.558386   -1.474761 H        1 UNL1     0.0691
     37 H         -0.204937   -3.217386   -2.268665 H        1 UNL1     0.0691
     38 H         0.100907   -0.468201   -6.28377 H        1 UNL1     0.0385
     39 H         -0.42471   1.209923   -6.046773 H        1 UNL1     0.0385
     40 H         -2.118845   -0.493003   -5.272631 H        1 UNL1     0.0789
     41 H         -0.218312   2.264076   -4.088808 H        1 UNL1     0.0623
     42 H         -1.02227   3.980415   -2.517181 H        1 UNL1     0.0654
     43 H         -4.369317   1.491092   -1.492519 H        1 UNL1     0.0654
     44 H         -3.621047   -0.205914   -3.062939 H        1 UNL1     0.0623
     45 H         -2.378371   3.980683   -0.412759 H        1 UNL1     0.2921
     46 H         3.658587   0.514111   -4.028328 H        1 UNL1     0.2922
     47 H         -0.444149   -0.763596   -2.108239 H        1 UNL1     0.2126
     48 H         -2.013981   -1.067974   1.037372 H        1 UNL1     0.2101
     49 H         2.18458   -0.899966   -0.418064 H        1 UNL1     0.2100
     50 H         -0.422048   -3.699941   2.081081 H        1 UNL1     0.2102
@<TRIPOS>BOND
     1     1     2    1
     2     1     6    1
     3     2     3    1
     4     3     4    1
     5     3    29    1
     6     3    33    1
     7     4     5    1
     8     5     6    1
     9     5     7    1
    10     5    35    1
    11     7     8    1
    12     8     9   ar
    13     8    13   ar
    14     9    10   ar
    15     9    36    1
    16    10    11   ar
    17    10    26    1
    18    11    12   ar
    19    11    14    1
    20    12    13   ar
    21    12    17    1
    22    13    37    1
    23    14    15    1
    24    14    25    2
    25    15    16    1
    26    15    38    1
    27    15    39    1
    28    16    17    1
    29    16    18    1
    30    16    40    1
    31    18    19   ar
    32    18    23   ar
    33    19    20   ar
    34    19    41    1
    35    20    21   ar
    36    20    42    1
    37    21    22   ar
    38    21    24    1
    39    22    23   ar
    40    22    43    1
    41    23    44    1
    42    24    45    1
    43    26    46    1
    44    27    47    1
    45    28    48    1
    46    29    49    1
    47    30    50    1
    48     1    31    1
    49     1    27    1
    50     2    32    1
    51     2    28    1
    52     4    34    1
    53     4    30    1
