@<TRIPOS>MOLECULE
*****
 50 53 0 0 0
SMALL
GASTEIGER

@<TRIPOS>ATOM
     1 C         -0.336527   -1.331381   1.698523 C.3        1 UNL1     0.1889
     2 C         -0.464794   -0.974806   0.193085 C.3        1 UNL1     0.1342
     3 C         -1.905093   -0.957889   -0.34144 C.3        1 UNL1     0.1174
     4 C         -2.794357   -2.016657   0.315323 C.3        1 UNL1     0.1456
     5 C         -2.644245   -2.045746   1.84731 C.3        1 UNL1     0.2326
     6 O         -1.280165   -2.267621   2.197918 O.3        1 UNL1     -0.3076
     7 O         -3.217249   -0.898885   2.501296 O.3        1 UNL1     -0.4605
     8 C         -3.728871   -1.116101   3.76802 C.ar        1 UNL1     0.1310
     9 C         -4.54807   -2.188082   4.138249 C.ar        1 UNL1     0.0226
     10 C         -5.002823   -2.330472   5.454618 C.ar        1 UNL1     0.1343
     11 C         -4.629522   -1.416435   6.439008 C.ar        1 UNL1     0.1007
     12 C         -3.845465   -0.319283   6.072544 C.ar        1 UNL1     0.1389
     13 C         -3.390516   -0.174892   4.748307 C.ar        1 UNL1     0.0229
     14 C         -5.012105   -1.564684   7.862316 C.2        1 UNL1     0.1740
     15 C         -4.34208   -0.620159   8.816511 C.3        1 UNL1     0.0520
     16 C         -4.268945   0.75317   8.163383 C.3        1 UNL1     0.1322
     17 O         -3.509127   0.697431   6.93593 O.3        1 UNL1     -0.4828
     18 C         -5.62648   1.448955   8.038064 C.ar        1 UNL1     -0.0067
     19 C         -6.001736   2.01793   6.803696 C.ar        1 UNL1     -0.0516
     20 C         -7.215295   2.702571   6.667662 C.ar        1 UNL1     -0.0198
     21 C         -8.057071   2.831192   7.757935 C.ar        1 UNL1     0.1169
     22 C         -7.730588   2.252995   8.977745 C.ar        1 UNL1     -0.0198
     23 C         -6.525596   1.55244   9.109173 C.ar        1 UNL1     -0.0516
     24 O         -9.212961   3.537294   7.597497 O.3        1 UNL1     -0.5068
     25 O         -5.763348   -2.445625   8.27227 O.2        1 UNL1     -0.2917
     26 O         -5.799885   -3.397667   5.750205 O.3        1 UNL1     -0.5058
     27 O         -0.229483   -0.195271   2.541484 O.3        1 UNL1     -0.3648
     28 O         0.264278   -1.953156   -0.571107 O.3        1 UNL1     -0.3841
     29 O         -2.459684   0.356793   -0.262867 O.3        1 UNL1     -0.3863
     30 O         -2.44921   -3.317055   -0.209583 O.3        1 UNL1     -0.3829
     31 H         0.622884   -1.846646   1.817316 H        1 UNL1     0.0937
     32 H         0.0   0.0   0.0 H        1 UNL1     0.0671
     33 H         -1.867605   -1.195126   -1.413836 H        1 UNL1     0.0649
     34 H         -3.843839   -1.835412   0.058146 H        1 UNL1     0.0683
     35 H         -3.201239   -2.941055   2.150721 H        1 UNL1     0.1085
     36 H         -4.827503   -2.962518   3.432355 H        1 UNL1     0.0691
     37 H         -2.782225   0.688766   4.488367 H        1 UNL1     0.0691
     38 H         -3.340851   -1.013048   9.023164 H        1 UNL1     0.0385
     39 H         -4.903235   -0.602005   9.757018 H        1 UNL1     0.0385
     40 H         -3.673284   1.395471   8.826073 H        1 UNL1     0.0789
     41 H         -5.354269   1.938627   5.935279 H        1 UNL1     0.0623
     42 H         -7.487933   3.147166   5.713715 H        1 UNL1     0.0654
     43 H         -8.389427   2.334752   9.833991 H        1 UNL1     0.0654
     44 H         -6.307421   1.104432   10.073815 H        1 UNL1     0.0623
     45 H         -8.984341   4.446976   7.346641 H        1 UNL1     0.2921
     46 H         -5.398658   -3.91201   6.468453 H        1 UNL1     0.2922
     47 H         0.513295   0.358852   2.263837 H        1 UNL1     0.2126
     48 H         1.199856   -1.878329   -0.301241 H        1 UNL1     0.2101
     49 H         -2.019044   0.939566   -0.901621 H        1 UNL1     0.2100
     50 H         -2.681603   -3.329467   -1.161188 H        1 UNL1     0.2102
@<TRIPOS>BOND
     1     1     2    1
     2     1     6    1
     3     2     3    1
     4     3     4    1
     5     3    29    1
     6     3    33    1
     7     4     5    1
     8     5     6    1
     9     5     7    1
    10     5    35    1
    11     7     8    1
    12     8     9   ar
    13     8    13   ar
    14     9    10   ar
    15     9    36    1
    16    10    11   ar
    17    10    26    1
    18    11    12   ar
    19    11    14    1
    20    12    13   ar
    21    12    17    1
    22    13    37    1
    23    14    15    1
    24    14    25    2
    25    15    16    1
    26    15    38    1
    27    15    39    1
    28    16    17    1
    29    16    18    1
    30    16    40    1
    31    18    19   ar
    32    18    23   ar
    33    19    20   ar
    34    19    41    1
    35    20    21   ar
    36    20    42    1
    37    21    22   ar
    38    21    24    1
    39    22    23   ar
    40    22    43    1
    41    23    44    1
    42    24    45    1
    43    26    46    1
    44    27    47    1
    45    28    48    1
    46    29    49    1
    47    30    50    1
    48     1    31    1
    49     1    27    1
    50     2    32    1
    51     2    28    1
    52     4    34    1
    53     4    30    1
