@<TRIPOS>MOLECULE
*****
 50 53 0 0 0
SMALL
GASTEIGER

@<TRIPOS>ATOM
     1 C         1.992862   -0.286857   0.846768 C.3        1 UNL1     0.1889
     2 C         0.444421   -0.341604   0.943058 C.3        1 UNL1     0.1342
     3 C         -0.155051   0.469239   2.10221 C.3        1 UNL1     0.1174
     4 C         0.73137   0.46513   3.350152 C.3        1 UNL1     0.1456
     5 C         2.20979   0.745942   3.024906 C.3        1 UNL1     0.2326
     6 O         2.689856   -0.209252   2.081504 O.3        1 UNL1     -0.3076
     7 O         2.461383   2.106897   2.630161 O.3        1 UNL1     -0.4605
     8 C         1.463616   2.718501   1.892645 C.ar        1 UNL1     0.1310
     9 C         0.191724   3.05233   2.370293 C.ar        1 UNL1     0.0226
     10 C         -0.746495   3.687442   1.547929 C.ar        1 UNL1     0.1343
     11 C         -0.426937   4.025904   0.233712 C.ar        1 UNL1     0.1007
     12 C         0.825577   3.660869   -0.267029 C.ar        1 UNL1     0.1389
     13 C         1.767834   3.019904   0.559255 C.ar        1 UNL1     0.0229
     14 C         -1.349708   4.772015   -0.652834 C.2        1 UNL1     0.1740
     15 C         -0.762862   5.245238   -1.950225 C.3        1 UNL1     0.0520
     16 C         0.136905   4.147441   -2.500877 C.3        1 UNL1     0.1322
     17 O         1.205416   3.848045   -1.575828 O.3        1 UNL1     -0.4828
     18 C         -0.626434   2.921024   -3.006782 C.ar        1 UNL1     -0.0067
     19 C         -1.862185   3.096477   -3.662792 C.ar        1 UNL1     -0.0516
     20 C         -2.60852   1.993972   -4.095724 C.ar        1 UNL1     -0.0198
     21 C         -2.134561   0.713585   -3.872569 C.ar        1 UNL1     0.1169
     22 C         -0.905357   0.50954   -3.259167 C.ar        1 UNL1     -0.0198
     23 C         -0.150146   1.612361   -2.842635 C.ar        1 UNL1     -0.0516
     24 O         -2.906725   -0.336517   -4.274377 O.3        1 UNL1     -0.5068
     25 O         -2.499314   5.067484   -0.337256 O.2        1 UNL1     -0.2917
     26 O         -1.969582   3.984925   2.074377 O.3        1 UNL1     -0.5058
     27 O         2.467848   0.672757   -0.083993 O.3        1 UNL1     -0.3648
     28 O         0.047188   -1.712852   1.129042 O.3        1 UNL1     -0.3841
     29 O         -0.500645   1.78781   1.673181 O.3        1 UNL1     -0.3863
     30 O         0.634776   -0.823184   3.995602 O.3        1 UNL1     -0.3829
     31 H         2.314618   -1.247976   0.431074 H        1 UNL1     0.0937
     32 H         -0.0   0.0   0.0 H        1 UNL1     0.0671
     33 H         -1.105557   -0.003761   2.385988 H        1 UNL1     0.0649
     34 H         0.370899   1.210815   4.067379 H        1 UNL1     0.0683
     35 H         2.730546   0.549799   3.970539 H        1 UNL1     0.1085
     36 H         -0.098085   2.866422   3.398675 H        1 UNL1     0.0691
     37 H         2.735557   2.745219   0.145064 H        1 UNL1     0.0691
     38 H         -0.192112   6.156657   -1.742651 H        1 UNL1     0.0385
     39 H         -1.574919   5.499792   -2.639822 H        1 UNL1     0.0385
     40 H         0.645165   4.557987   -3.383852 H        1 UNL1     0.0789
     41 H         -2.2603   4.091029   -3.84174 H        1 UNL1     0.0623
     42 H         -3.565607   2.14198   -4.589778 H        1 UNL1     0.0654
     43 H         -0.517723   -0.488467   -3.092935 H        1 UNL1     0.0654
     44 H         0.810552   1.416287   -2.376309 H        1 UNL1     0.0623
     45 H         -2.322617   -1.0804   -4.493862 H        1 UNL1     0.2921
     46 H         -1.869661   4.661386   2.762729 H        1 UNL1     0.2922
     47 H         1.756896   1.280861   -0.330196 H        1 UNL1     0.2126
     48 H         0.639546   -2.085731   1.810075 H        1 UNL1     0.2101
     49 H         -0.796868   2.314833   2.43232 H        1 UNL1     0.2100
     50 H         -0.110124   -1.310361   3.586341 H        1 UNL1     0.2102
@<TRIPOS>BOND
     1     1     2    1
     2     1     6    1
     3     2     3    1
     4     3     4    1
     5     3    29    1
     6     3    33    1
     7     4     5    1
     8     5     6    1
     9     5     7    1
    10     5    35    1
    11     7     8    1
    12     8     9   ar
    13     8    13   ar
    14     9    10   ar
    15     9    36    1
    16    10    11   ar
    17    10    26    1
    18    11    12   ar
    19    11    14    1
    20    12    13   ar
    21    12    17    1
    22    13    37    1
    23    14    15    1
    24    14    25    2
    25    15    16    1
    26    15    38    1
    27    15    39    1
    28    16    17    1
    29    16    18    1
    30    16    40    1
    31    18    19   ar
    32    18    23   ar
    33    19    20   ar
    34    19    41    1
    35    20    21   ar
    36    20    42    1
    37    21    22   ar
    38    21    24    1
    39    22    23   ar
    40    22    43    1
    41    23    44    1
    42    24    45    1
    43    26    46    1
    44    27    47    1
    45    28    48    1
    46    29    49    1
    47    30    50    1
    48     1    31    1
    49     1    27    1
    50     2    32    1
    51     2    28    1
    52     4    34    1
    53     4    30    1
