@<TRIPOS>MOLECULE
*****
 50 53 0 0 0
SMALL
GASTEIGER

@<TRIPOS>ATOM
     1 C         0.67017   -1.852664   0.943033 C.3        1 UNL1     0.1889
     2 C         -0.086943   -0.497756   0.973777 C.3        1 UNL1     0.1342
     3 C         0.374691   0.469946   2.074191 C.3        1 UNL1     0.1174
     4 C         0.794442   -0.248832   3.358826 C.3        1 UNL1     0.1456
     5 C         1.717216   -1.451102   3.087901 C.3        1 UNL1     0.2326
     6 O         1.075524   -2.366686   2.203138 O.3        1 UNL1     -0.3076
     7 O         3.03655   -1.074581   2.653263 O.3        1 UNL1     -0.4605
     8 C         3.196838   -0.890877   1.291614 C.ar        1 UNL1     0.1310
     9 C         3.639791   0.286516   0.679372 C.ar        1 UNL1     0.0226
     10 C         3.786208   0.368686   -0.710488 C.ar        1 UNL1     0.1343
     11 C         3.515692   -0.733241   -1.520687 C.ar        1 UNL1     0.1007
     12 C         3.033486   -1.90151   -0.924527 C.ar        1 UNL1     0.1389
     13 C         2.883827   -1.983034   0.472752 C.ar        1 UNL1     0.0229
     14 C         3.733154   -0.728234   -2.985896 C.2        1 UNL1     0.1740
     15 C         3.604932   -2.05968   -3.665866 C.3        1 UNL1     0.0520
     16 C         2.427529   -2.80345   -3.050655 C.3        1 UNL1     0.1322
     17 O         2.633736   -3.00911   -1.635645 O.3        1 UNL1     -0.4828
     18 C         1.065026   -2.207724   -3.413171 C.ar        1 UNL1     -0.0067
     19 C         1.004045   -0.933819   -4.014553 C.ar        1 UNL1     -0.0516
     20 C         -0.227413   -0.339753   -4.315484 C.ar        1 UNL1     -0.0198
     21 C         -1.402478   -1.004673   -4.013935 C.ar        1 UNL1     0.1169
     22 C         -1.374391   -2.274549   -3.452271 C.ar        1 UNL1     -0.0198
     23 C         -0.142813   -2.876671   -3.168159 C.ar        1 UNL1     -0.0516
     24 O         -2.58319   -0.378684   -4.286801 O.3        1 UNL1     -0.5068
     25 O         4.075808   0.269318   -3.615153 O.2        1 UNL1     -0.2917
     26 O         4.221295   1.546161   -1.245124 O.3        1 UNL1     -0.5058
     27 O         1.727915   -1.887919   -0.001805 O.3        1 UNL1     -0.3648
     28 O         -1.485041   -0.761403   1.194046 O.3        1 UNL1     -0.3841
     29 O         1.382152   1.355289   1.580915 O.3        1 UNL1     -0.3863
     30 O         -0.38586   -0.715689   4.047754 O.3        1 UNL1     -0.3829
     31 H         -0.042131   -2.600841   0.578426 H        1 UNL1     0.0937
     32 H         0.0   0.0   0.0 H        1 UNL1     0.0671
     33 H         -0.477451   1.113435   2.33399 H        1 UNL1     0.0649
     34 H         1.301679   0.452158   4.03093 H        1 UNL1     0.0683
     35 H         1.794563   -1.949996   4.062068 H        1 UNL1     0.1085
     36 H         3.919722   1.159793   1.25829 H        1 UNL1     0.0691
     37 H         2.505565   -2.903527   0.912188 H        1 UNL1     0.0691
     38 H         4.542102   -2.603944   -3.507697 H        1 UNL1     0.0385
     39 H         3.478343   -1.902207   -4.742414 H        1 UNL1     0.0385
     40 H         2.42511   -3.815456   -3.47769 H        1 UNL1     0.0789
     41 H         1.912026   -0.387492   -4.25277 H        1 UNL1     0.0623
     42 H         -0.261452   0.648084   -4.768288 H        1 UNL1     0.0654
     43 H         -2.288397   -2.810502   -3.225867 H        1 UNL1     0.0654
     44 H         -0.158104   -3.873976   -2.739214 H        1 UNL1     0.0623
     45 H         -3.176177   -1.016207   -4.716509 H        1 UNL1     0.2921
     46 H         4.954458   1.372543   -1.856468 H        1 UNL1     0.2922
     47 H         2.390164   -1.215852   0.211764 H        1 UNL1     0.2126
     48 H         -1.979341   -0.160759   0.603601 H        1 UNL1     0.2101
     49 H         1.99638   0.869611   1.007647 H        1 UNL1     0.2100
     50 H         -0.947028   -1.187975   3.398332 H        1 UNL1     0.2102
@<TRIPOS>BOND
     1     1     2    1
     2     1     6    1
     3     2     3    1
     4     3     4    1
     5     3    29    1
     6     3    33    1
     7     4     5    1
     8     5     6    1
     9     5     7    1
    10     5    35    1
    11     7     8    1
    12     8     9   ar
    13     8    13   ar
    14     9    10   ar
    15     9    36    1
    16    10    11   ar
    17    10    26    1
    18    11    12   ar
    19    11    14    1
    20    12    13   ar
    21    12    17    1
    22    13    37    1
    23    14    15    1
    24    14    25    2
    25    15    16    1
    26    15    38    1
    27    15    39    1
    28    16    17    1
    29    16    18    1
    30    16    40    1
    31    18    19   ar
    32    18    23   ar
    33    19    20   ar
    34    19    41    1
    35    20    21   ar
    36    20    42    1
    37    21    22   ar
    38    21    24    1
    39    22    23   ar
    40    22    43    1
    41    23    44    1
    42    24    45    1
    43    26    46    1
    44    27    47    1
    45    28    48    1
    46    29    49    1
    47    30    50    1
    48     1    31    1
    49     1    27    1
    50     2    32    1
    51     2    28    1
    52     4    34    1
    53     4    30    1
