@<TRIPOS>MOLECULE
*****
 50 53 0 0 0
SMALL
GASTEIGER

@<TRIPOS>ATOM
     1 C         -0.316291   -1.374873   1.66748 C.3        1 UNL1     0.1889
     2 C         -0.459825   -0.980956   0.172767 C.3        1 UNL1     0.1342
     3 C         -1.905124   -0.955557   -0.347744 C.3        1 UNL1     0.1174
     4 C         -2.784777   -2.033585   0.290365 C.3        1 UNL1     0.1456
     5 C         -2.620203   -2.100715   1.819669 C.3        1 UNL1     0.2326
     6 O         -1.252186   -2.326639   2.151872 O.3        1 UNL1     -0.3076
     7 O         -3.190729   -0.972666   2.507656 O.3        1 UNL1     -0.4605
     8 C         -3.699962   -1.225857   3.768649 C.ar        1 UNL1     0.1310
     9 C         -4.513782   -2.311107   4.111038 C.ar        1 UNL1     0.0226
     10 C         -4.96644   -2.490556   5.423593 C.ar        1 UNL1     0.1343
     11 C         -4.596309   -1.601277   6.431575 C.ar        1 UNL1     0.1007
     12 C         -3.817742   -0.49113   6.093654 C.ar        1 UNL1     0.1389
     13 C         -3.364907   -0.309472   4.773286 C.ar        1 UNL1     0.0229
     14 C         -4.976653   -1.789088   7.850807 C.2        1 UNL1     0.1740
     15 C         -4.309976   -0.867147   8.829129 C.3        1 UNL1     0.0520
     16 C         -4.243916   0.523383   8.212672 C.3        1 UNL1     0.1322
     17 O         -3.485182   0.503833   6.983441 O.3        1 UNL1     -0.4828
     18 C         -5.604796   1.215918   8.107203 C.ar        1 UNL1     -0.0067
     19 C         -5.737018   2.363571   7.298733 C.ar        1 UNL1     -0.0516
     20 C         -6.955325   3.048462   7.217407 C.ar        1 UNL1     -0.0198
     21 C         -8.044373   2.601046   7.943782 C.ar        1 UNL1     0.1169
     22 C         -7.954496   1.454637   8.722568 C.ar        1 UNL1     -0.0198
     23 C         -6.74141   0.758948   8.789612 C.ar        1 UNL1     -0.0516
     24 O         -9.203846   3.315513   7.86922 O.3        1 UNL1     -0.5068
     25 O         -5.72336   -2.684107   8.237918 O.2        1 UNL1     -0.2917
     26 O         -5.758226   -3.568934   5.691471 O.3        1 UNL1     -0.5058
     27 O         -0.204995   -0.259982   2.537778 O.3        1 UNL1     -0.3648
     28 O         0.265185   -1.937236   -0.622591 O.3        1 UNL1     -0.3841
     29 O         -2.463177   0.354809   -0.230904 O.3        1 UNL1     -0.3863
     30 O         -2.440392   -3.319158   -0.270341 O.3        1 UNL1     -0.3829
     31 H         0.645844   -1.889652   1.76432 H        1 UNL1     0.0937
     32 H         0.0   0.0   0.0 H        1 UNL1     0.0671
     33 H         -1.876938   -1.165591   -1.426081 H        1 UNL1     0.0649
     34 H         -3.837203   -1.849545   0.047609 H        1 UNL1     0.0683
     35 H         -3.171444   -3.005295   2.105583 H        1 UNL1     0.1085
     36 H         -4.79039   -3.067801   3.385074 H        1 UNL1     0.0691
     37 H         -2.760907   0.563617   4.535813 H        1 UNL1     0.0691
     38 H         -3.306713   -1.260719   9.0243 H        1 UNL1     0.0385
     39 H         -4.870187   -0.876616   9.770327 H        1 UNL1     0.0385
     40 H         -3.650518   1.150611   8.891631 H        1 UNL1     0.0789
     41 H         -4.894532   2.740167   6.725982 H        1 UNL1     0.0623
     42 H         -7.041372   3.939055   6.59979 H        1 UNL1     0.0654
     43 H         -8.805293   1.086892   9.283655 H        1 UNL1     0.0654
     44 H         -6.709977   -0.138741   9.399538 H        1 UNL1     0.0623
     45 H         -9.039069   4.205176   8.221448 H        1 UNL1     0.2921
     46 H         -5.365111   -4.088255   6.410622 H        1 UNL1     0.2922
     47 H         0.522088   0.312909   2.256698 H        1 UNL1     0.2126
     48 H         1.211033   -1.816911   -0.411341 H        1 UNL1     0.2101
     49 H         -2.036442   0.95297   -0.864856 H        1 UNL1     0.2100
     50 H         -2.707568   -3.318359   -1.212853 H        1 UNL1     0.2102
@<TRIPOS>BOND
     1     1     2    1
     2     1     6    1
     3     2     3    1
     4     3     4    1
     5     3    29    1
     6     3    33    1
     7     4     5    1
     8     5     6    1
     9     5     7    1
    10     5    35    1
    11     7     8    1
    12     8     9   ar
    13     8    13   ar
    14     9    10   ar
    15     9    36    1
    16    10    11   ar
    17    10    26    1
    18    11    12   ar
    19    11    14    1
    20    12    13   ar
    21    12    17    1
    22    13    37    1
    23    14    15    1
    24    14    25    2
    25    15    16    1
    26    15    38    1
    27    15    39    1
    28    16    17    1
    29    16    18    1
    30    16    40    1
    31    18    19   ar
    32    18    23   ar
    33    19    20   ar
    34    19    41    1
    35    20    21   ar
    36    20    42    1
    37    21    22   ar
    38    21    24    1
    39    22    23   ar
    40    22    43    1
    41    23    44    1
    42    24    45    1
    43    26    46    1
    44    27    47    1
    45    28    48    1
    46    29    49    1
    47    30    50    1
    48     1    31    1
    49     1    27    1
    50     2    32    1
    51     2    28    1
    52     4    34    1
    53     4    30    1
