@<TRIPOS>MOLECULE
*****
 50 53 0 0 0
SMALL
GASTEIGER

@<TRIPOS>ATOM
     1 C         -0.330114   -1.327307   1.702964 C.3        1 UNL1     0.1889
     2 C         -0.461586   -0.975616   0.196654 C.3        1 UNL1     0.1342
     3 C         -1.902686   -0.964621   -0.335864 C.3        1 UNL1     0.1174
     4 C         -2.78783   -2.024088   0.325321 C.3        1 UNL1     0.1456
     5 C         -2.63546   -2.048151   1.857172 C.3        1 UNL1     0.2326
     6 O         -1.270224   -2.264881   2.206495 O.3        1 UNL1     -0.3076
     7 O         -3.210983   -0.901068   2.508551 O.3        1 UNL1     -0.4605
     8 C         -3.71973   -1.115929   3.776834 C.ar        1 UNL1     0.1310
     9 C         -4.534875   -2.189338   4.15184 C.ar        1 UNL1     0.0226
     10 C         -4.986905   -2.329038   5.469435 C.ar        1 UNL1     0.1343
     11 C         -4.61482   -1.410733   6.450306 C.ar        1 UNL1     0.1007
     12 C         -3.834889   -0.312253   6.079047 C.ar        1 UNL1     0.1389
     13 C         -3.382683   -0.170577   4.753578 C.ar        1 UNL1     0.0229
     14 C         -4.994476   -1.555727   7.874733 C.2        1 UNL1     0.1740
     15 C         -4.325818   -0.606086   8.8248 C.3        1 UNL1     0.0520
     16 C         -4.258178   0.76541   8.167245 C.3        1 UNL1     0.1322
     17 O         -3.500302   0.708231   6.938658 O.3        1 UNL1     -0.4828
     18 C         -5.618134   1.456483   8.042097 C.ar        1 UNL1     -0.0067
     19 C         -5.998501   2.017928   6.805847 C.ar        1 UNL1     -0.0516
     20 C         -7.214478   2.698232   6.669643 C.ar        1 UNL1     -0.0198
     21 C         -8.053622   2.829991   7.76157 C.ar        1 UNL1     0.1169
     22 C         -7.722039   2.259102   8.983444 C.ar        1 UNL1     -0.0198
     23 C         -6.514594   1.562836   9.11515 C.ar        1 UNL1     -0.0516
     24 O         -9.212062   3.5318   7.60069 O.3        1 UNL1     -0.5068
     25 O         -5.742205   -2.437758   8.288746 O.2        1 UNL1     -0.2917
     26 O         -5.780057   -3.397826   5.769746 O.3        1 UNL1     -0.5058
     27 O         -0.225293   -0.188368   2.542379 O.3        1 UNL1     -0.3648
     28 O         0.269341   -1.954051   -0.565656 O.3        1 UNL1     -0.3841
     29 O         -2.461116   0.348618   -0.260422 O.3        1 UNL1     -0.3863
     30 O         -2.439518   -3.325006   -0.196197 O.3        1 UNL1     -0.3829
     31 H         0.631009   -1.839332   1.821925 H        1 UNL1     0.0937
     32 H         0.0   0.0   0.0 H        1 UNL1     0.0671
     33 H         -1.866004   -1.204947   -1.4076 H        1 UNL1     0.0649
     34 H         -3.838215   -1.846765   0.069101 H        1 UNL1     0.0683
     35 H         -3.189329   -2.944218   2.164046 H        1 UNL1     0.1085
     36 H         -4.813057   -2.966871   3.448863 H        1 UNL1     0.0691
     37 H         -2.777591   0.694189   4.489879 H        1 UNL1     0.0691
     38 H         -3.322989   -0.995142   9.030949 H        1 UNL1     0.0385
     39 H         -4.885407   -0.586762   9.766217 H        1 UNL1     0.0385
     40 H         -3.663423   1.411677   8.826886 H        1 UNL1     0.0789
     41 H         -5.3532   1.936057   5.936058 H        1 UNL1     0.0623
     42 H         -7.491082   3.13706   5.714169 H        1 UNL1     0.0654
     43 H         -8.378753   2.343331   9.841082 H        1 UNL1     0.0654
     44 H         -6.292413   1.120487   10.081487 H        1 UNL1     0.0623
     45 H         -8.987045   4.439144   7.338371 H        1 UNL1     0.2921
     46 H         -5.375096   -3.909606   6.487729 H        1 UNL1     0.2922
     47 H         0.517222   0.365654   2.26383 H        1 UNL1     0.2126
     48 H         1.202225   -1.887769   -0.284469 H        1 UNL1     0.2101
     49 H         -2.023017   0.930845   -0.901418 H        1 UNL1     0.2100
     50 H         -2.673221   -3.340957   -1.147428 H        1 UNL1     0.2102
@<TRIPOS>BOND
     1     1     2    1
     2     1     6    1
     3     2     3    1
     4     3     4    1
     5     3    29    1
     6     3    33    1
     7     4     5    1
     8     5     6    1
     9     5     7    1
    10     5    35    1
    11     7     8    1
    12     8     9   ar
    13     8    13   ar
    14     9    10   ar
    15     9    36    1
    16    10    11   ar
    17    10    26    1
    18    11    12   ar
    19    11    14    1
    20    12    13   ar
    21    12    17    1
    22    13    37    1
    23    14    15    1
    24    14    25    2
    25    15    16    1
    26    15    38    1
    27    15    39    1
    28    16    17    1
    29    16    18    1
    30    16    40    1
    31    18    19   ar
    32    18    23   ar
    33    19    20   ar
    34    19    41    1
    35    20    21   ar
    36    20    42    1
    37    21    22   ar
    38    21    24    1
    39    22    23   ar
    40    22    43    1
    41    23    44    1
    42    24    45    1
    43    26    46    1
    44    27    47    1
    45    28    48    1
    46    29    49    1
    47    30    50    1
    48     1    31    1
    49     1    27    1
    50     2    32    1
    51     2    28    1
    52     4    34    1
    53     4    30    1
