@<TRIPOS>MOLECULE
*****
 50 53 0 0 0
SMALL
GASTEIGER

@<TRIPOS>ATOM
     1 C         -0.699025   -1.820019   0.984734 C.3        1 UNL1     0.1889
     2 C         -0.004031   -1.080483   -0.190005 C.3        1 UNL1     0.1342
     3 C         -0.624565   -1.344194   -1.570533 C.3        1 UNL1     0.1174
     4 C         -1.158061   -2.771277   -1.718628 C.3        1 UNL1     0.1456
     5 C         -1.996418   -3.216732   -0.506568 C.3        1 UNL1     0.2326
     6 O         -1.223502   -3.105434   0.686363 O.3        1 UNL1     -0.3076
     7 O         -3.272033   -2.556214   -0.418014 O.3        1 UNL1     -0.4605
     8 C         -4.298693   -3.293421   0.144146 C.ar        1 UNL1     0.1310
     9 C         -4.60301   -4.624061   -0.162593 C.ar        1 UNL1     0.0226
     10 C         -5.6554   -5.291389   0.475412 C.ar        1 UNL1     0.1343
     11 C         -6.414655   -4.651   1.453815 C.ar        1 UNL1     0.1007
     12 C         -6.146575   -3.30957   1.739268 C.ar        1 UNL1     0.1389
     13 C         -5.090045   -2.63799   1.095719 C.ar        1 UNL1     0.0229
     14 C         -7.483438   -5.333932   2.218969 C.2        1 UNL1     0.1740
     15 C         -8.042526   -4.565889   3.380469 C.3        1 UNL1     0.0520
     16 C         -8.182225   -3.106313   2.970494 C.3        1 UNL1     0.1322
     17 O         -6.89939   -2.551167   2.605502 O.3        1 UNL1     -0.4828
     18 C         -9.295025   -2.856842   1.94963 C.ar        1 UNL1     -0.0067
     19 C         -9.021037   -2.086396   0.80091 C.ar        1 UNL1     -0.0516
     20 C         -10.027873   -1.799588   -0.128598 C.ar        1 UNL1     -0.0198
     21 C         -11.311551   -2.270168   0.082476 C.ar        1 UNL1     0.1169
     22 C         -11.604575   -3.059518   1.186968 C.ar        1 UNL1     -0.0198
     23 C         -10.593669   -3.361933   2.107115 C.ar        1 UNL1     -0.0516
     24 O         -12.274622   -1.93894   -0.824817 O.3        1 UNL1     -0.5068
     25 O         -7.85019   -6.483437   1.98959 O.2        1 UNL1     -0.2917
     26 O         -5.901017   -6.588274   0.129948 O.3        1 UNL1     -0.5058
     27 O         -1.641168   -1.018227   1.6792 O.3        1 UNL1     -0.3648
     28 O         1.369544   -1.507694   -0.249067 O.3        1 UNL1     -0.3841
     29 O         -1.603911   -0.351899   -1.884166 O.3        1 UNL1     -0.3863
     30 O         -0.045633   -3.679322   -1.87241 O.3        1 UNL1     -0.3829
     31 H         0.078711   -2.027001   1.727945 H        1 UNL1     0.0937
     32 H         0.0   0.0   0.0 H        1 UNL1     0.0671
     33 H         0.166872   -1.221093   -2.322992 H        1 UNL1     0.0649
     34 H         -1.765054   -2.851214   -2.627237 H        1 UNL1     0.0683
     35 H         -2.16356   -4.287246   -0.679609 H        1 UNL1     0.1085
     36 H         -4.014938   -5.194227   -0.87337 H        1 UNL1     0.0691
     37 H         -4.902535   -1.593429   1.334937 H        1 UNL1     0.0691
     38 H         -7.34444   -4.676033   4.217171 H        1 UNL1     0.0385
     39 H         -9.00108   -5.00696   3.674425 H        1 UNL1     0.0385
     40 H         -8.479139   -2.54528   3.866933 H        1 UNL1     0.0789
     41 H         -8.023635   -1.697738   0.617103 H        1 UNL1     0.0623
     42 H         -9.806823   -1.194437   -1.00435 H        1 UNL1     0.0654
     43 H         -12.602956   -3.445782   1.354139 H        1 UNL1     0.0654
     44 H         -10.855638   -3.990096   2.953063 H        1 UNL1     0.0623
     45 H         -12.356206   -0.971673   -0.846155 H        1 UNL1     0.2921
     46 H         -5.859478   -7.147433   0.9218 H        1 UNL1     0.2922
     47 H         -1.220354   -0.207704   1.998303 H        1 UNL1     0.2126
     48 H         1.779129   -1.250638   0.599399 H        1 UNL1     0.2101
     49 H         -1.170491   0.502872   -2.036835 H        1 UNL1     0.2100
     50 H         0.397017   -3.472756   -2.721588 H        1 UNL1     0.2102
@<TRIPOS>BOND
     1     1     2    1
     2     1     6    1
     3     2     3    1
     4     3     4    1
     5     3    29    1
     6     3    33    1
     7     4     5    1
     8     5     6    1
     9     5     7    1
    10     5    35    1
    11     7     8    1
    12     8     9   ar
    13     8    13   ar
    14     9    10   ar
    15     9    36    1
    16    10    11   ar
    17    10    26    1
    18    11    12   ar
    19    11    14    1
    20    12    13   ar
    21    12    17    1
    22    13    37    1
    23    14    15    1
    24    14    25    2
    25    15    16    1
    26    15    38    1
    27    15    39    1
    28    16    17    1
    29    16    18    1
    30    16    40    1
    31    18    19   ar
    32    18    23   ar
    33    19    20   ar
    34    19    41    1
    35    20    21   ar
    36    20    42    1
    37    21    22   ar
    38    21    24    1
    39    22    23   ar
    40    22    43    1
    41    23    44    1
    42    24    45    1
    43    26    46    1
    44    27    47    1
    45    28    48    1
    46    29    49    1
    47    30    50    1
    48     1    31    1
    49     1    27    1
    50     2    32    1
    51     2    28    1
    52     4    34    1
    53     4    30    1
