@<TRIPOS>MOLECULE
*****
 50 53 0 0 0
SMALL
GASTEIGER

@<TRIPOS>ATOM
     1 C         -0.377921   -1.372792   1.656328 C.3        1 UNL1     0.1889
     2 C         -0.45303   -0.98715   0.154469 C.3        1 UNL1     0.1342
     3 C         -1.870944   -0.985902   -0.437125 C.3        1 UNL1     0.1174
     4 C         -2.764864   -2.074637   0.161775 C.3        1 UNL1     0.1456
     5 C         -2.675373   -2.133072   1.697659 C.3        1 UNL1     0.2326
     6 O         -1.32228   -2.336759   2.09831 O.3        1 UNL1     -0.3076
     7 O         -3.296224   -1.011087   2.351123 O.3        1 UNL1     -0.4605
     8 C         -3.860213   -1.266074   3.588227 C.ar        1 UNL1     0.1310
     9 C         -4.677002   -2.359251   3.896644 C.ar        1 UNL1     0.0226
     10 C         -5.187664   -2.539713   5.187597 C.ar        1 UNL1     0.1343
     11 C         -4.874138   -1.643307   6.20838 C.ar        1 UNL1     0.1007
     12 C         -4.093042   -0.525612   5.902714 C.ar        1 UNL1     0.1389
     13 C         -3.581867   -0.342962   4.603957 C.ar        1 UNL1     0.0229
     14 C         -5.317391   -1.831002   7.609255 C.2        1 UNL1     0.1740
     15 C         -4.706643   -0.898731   8.613947 C.3        1 UNL1     0.0520
     16 C         -4.627492   0.490561   7.996241 C.3        1 UNL1     0.1322
     17 O         -3.812757   0.475693   6.803322 O.3        1 UNL1     -0.4828
     18 C         -5.989575   1.167607   7.825764 C.ar        1 UNL1     -0.0067
     19 C         -6.312929   1.772499   6.59379 C.ar        1 UNL1     -0.0516
     20 C         -7.530499   2.441171   6.419538 C.ar        1 UNL1     -0.0198
     21 C         -8.428019   2.518115   7.469473 C.ar        1 UNL1     0.1169
     22 C         -8.152471   1.903699   8.684136 C.ar        1 UNL1     -0.0198
     23 C         -6.942933   1.219142   8.852822 C.ar        1 UNL1     -0.0516
     24 O         -9.587173   3.210031   7.274504 O.3        1 UNL1     -0.5068
     25 O         -6.071288   -2.733078   7.96476 O.2        1 UNL1     -0.2917
     26 O         -5.979086   -3.626001   5.422573 O.3        1 UNL1     -0.5058
     27 O         -0.326714   -0.252828   2.525721 O.3        1 UNL1     -0.3648
     28 O         0.324842   -1.935464   -0.599401 O.3        1 UNL1     -0.3841
     29 O         -2.453744   0.31626   -0.354354 O.3        1 UNL1     -0.3863
     30 O         -2.373796   -3.357061   -0.375015 O.3        1 UNL1     -0.3829
     31 H         0.585855   -1.87244   1.803183 H        1 UNL1     0.0937
     32 H         0.0   0.0   0.0 H        1 UNL1     0.0671
     33 H         -1.786141   -1.199835   -1.511723 H        1 UNL1     0.0649
     34 H         -3.806599   -1.907654   -0.133704 H        1 UNL1     0.0683
     35 H         -3.226458   -3.044793   1.96024 H        1 UNL1     0.1085
     36 H         -4.911557   -3.121182   3.161412 H        1 UNL1     0.0691
     37 H         -2.977171   0.536055   4.391438 H        1 UNL1     0.0691
     38 H         -3.709186   -1.280534   8.8565 H        1 UNL1     0.0385
     39 H         -5.309489   -0.911553   9.528382 H        1 UNL1     0.0385
     40 H         -4.072918   1.126412   8.699563 H        1 UNL1     0.0789
     41 H         -5.621453   1.733958   5.757114 H        1 UNL1     0.0623
     42 H         -7.76314   2.913809   5.468484 H        1 UNL1     0.0654
     43 H         -8.854738   1.944923   9.50817 H        1 UNL1     0.0654
     44 H         -6.765149   0.741819   9.811677 H        1 UNL1     0.0623
     45 H         -9.363075   4.132133   7.069016 H        1 UNL1     0.2921
     46 H         -5.601765   -4.150702   6.146264 H        1 UNL1     0.2922
     47 H         0.411448   0.324314   2.28513 H        1 UNL1     0.2126
     48 H         1.247769   -1.846876   -0.29266 H        1 UNL1     0.2101
     49 H         -2.004897   0.918381   -0.968993 H        1 UNL1     0.2100
     50 H         -2.573038   -3.355873   -1.334189 H        1 UNL1     0.2102
@<TRIPOS>BOND
     1     1     2    1
     2     1     6    1
     3     2     3    1
     4     3     4    1
     5     3    29    1
     6     3    33    1
     7     4     5    1
     8     5     6    1
     9     5     7    1
    10     5    35    1
    11     7     8    1
    12     8     9   ar
    13     8    13   ar
    14     9    10   ar
    15     9    36    1
    16    10    11   ar
    17    10    26    1
    18    11    12   ar
    19    11    14    1
    20    12    13   ar
    21    12    17    1
    22    13    37    1
    23    14    15    1
    24    14    25    2
    25    15    16    1
    26    15    38    1
    27    15    39    1
    28    16    17    1
    29    16    18    1
    30    16    40    1
    31    18    19   ar
    32    18    23   ar
    33    19    20   ar
    34    19    41    1
    35    20    21   ar
    36    20    42    1
    37    21    22   ar
    38    21    24    1
    39    22    23   ar
    40    22    43    1
    41    23    44    1
    42    24    45    1
    43    26    46    1
    44    27    47    1
    45    28    48    1
    46    29    49    1
    47    30    50    1
    48     1    31    1
    49     1    27    1
    50     2    32    1
    51     2    28    1
    52     4    34    1
    53     4    30    1
