@<TRIPOS>MOLECULE
*****
 50 53 0 0 0
SMALL
GASTEIGER

@<TRIPOS>ATOM
     1 C         -0.370668   -1.397909   1.636844 C.3        1 UNL1     0.1889
     2 C         -0.487796   -0.971325   0.14881 C.3        1 UNL1     0.1342
     3 C         -1.92632   -0.896743   -0.385561 C.3        1 UNL1     0.1174
     4 C         -2.841285   -1.962759   0.222358 C.3        1 UNL1     0.1456
     5 C         -2.694716   -2.063977   1.751618 C.3        1 UNL1     0.2326
     6 O         -1.33684   -2.333229   2.093006 O.3        1 UNL1     -0.3076
     7 O         -3.241974   -0.934469   2.455919 O.3        1 UNL1     -0.4605
     8 C         -3.772801   -1.198543   3.705725 C.ar        1 UNL1     0.1310
     9 C         -4.62299   -2.26538   4.016111 C.ar        1 UNL1     0.0226
     10 C         -5.095612   -2.458582   5.319646 C.ar        1 UNL1     0.1343
     11 C         -4.710008   -1.602532   6.35034 C.ar        1 UNL1     0.1007
     12 C         -3.894348   -0.509832   6.044581 C.ar        1 UNL1     0.1389
     13 C         -3.421394   -0.314262   4.733285 C.ar        1 UNL1     0.0229
     14 C         -5.111807   -1.808557   7.761108 C.2        1 UNL1     0.1740
     15 C         -4.428487   -0.928312   8.765992 C.3        1 UNL1     0.0520
     16 C         -4.313317   0.472257   8.180246 C.3        1 UNL1     0.1322
     17 O         -3.541758   0.455475   6.958983 O.3        1 UNL1     -0.4828
     18 C         -5.651274   1.208172   8.075252 C.ar        1 UNL1     -0.0067
     19 C         -5.664515   2.575213   7.729942 C.ar        1 UNL1     -0.0516
     20 C         -6.867029   3.289708   7.671477 C.ar        1 UNL1     -0.0198
     21 C         -8.059583   2.651843   7.962632 C.ar        1 UNL1     0.1169
     22 C         -8.082204   1.298381   8.273223 C.ar        1 UNL1     -0.0198
     23 C         -6.881695   0.57922   8.313743 C.ar        1 UNL1     -0.0516
     24 O         -9.206706   3.389131   7.932346 O.3        1 UNL1     -0.5068
     25 O         -5.889645   -2.688291   8.120996 O.2        1 UNL1     -0.2917
     26 O         -5.922733   -3.517651   5.555924 O.3        1 UNL1     -0.5058
     27 O         -0.238665   -0.303534   2.529988 O.3        1 UNL1     -0.3648
     28 O         0.219627   -1.931256   -0.657907 O.3        1 UNL1     -0.3841
     29 O         -2.450188   0.425726   -0.248555 O.3        1 UNL1     -0.3863
     30 O         -2.525645   -3.246056   -0.360059 O.3        1 UNL1     -0.3829
     31 H         0.576222   -1.940309   1.733174 H        1 UNL1     0.0937
     32 H         0.0   0.0   0.0 H        1 UNL1     0.0671
     33 H         -1.892408   -1.0865   -1.467487 H        1 UNL1     0.0649
     34 H         -3.88577   -1.745642   -0.027266 H        1 UNL1     0.0683
     35 H         -3.273033   -2.958691   2.014134 H        1 UNL1     0.1085
     36 H         -4.914265   -2.997754   3.27119 H        1 UNL1     0.0691
     37 H         -2.788535   0.544762   4.52101 H        1 UNL1     0.0691
     38 H         -3.439892   -1.356426   8.963288 H        1 UNL1     0.0385
     39 H         -4.999271   -0.940518   9.700784 H        1 UNL1     0.0385
     40 H         -3.70882   1.066557   8.878752 H        1 UNL1     0.0789
     41 H         -4.740912   3.100967   7.505909 H        1 UNL1     0.0623
     42 H         -6.862943   4.34636   7.415586 H        1 UNL1     0.0654
     43 H         -9.012016   0.785424   8.488248 H        1 UNL1     0.0654
     44 H         -6.937622   -0.479125   8.549588 H        1 UNL1     0.0623
     45 H         -9.768324   3.053236   7.215076 H        1 UNL1     0.2921
     46 H         -5.653891   -3.961495   6.375765 H        1 UNL1     0.2922
     47 H         0.507735   0.253689   2.268743 H        1 UNL1     0.2126
     48 H         1.17179   -1.779295   -0.502902 H        1 UNL1     0.2101
     49 H         -2.9987   0.482316   0.550023 H        1 UNL1     0.2100
     50 H         -2.782744   -3.219743   -1.305004 H        1 UNL1     0.2102
@<TRIPOS>BOND
     1     1     2    1
     2     1     6    1
     3     2     3    1
     4     3     4    1
     5     3    29    1
     6     3    33    1
     7     4     5    1
     8     5     6    1
     9     5     7    1
    10     5    35    1
    11     7     8    1
    12     8     9   ar
    13     8    13   ar
    14     9    10   ar
    15     9    36    1
    16    10    11   ar
    17    10    26    1
    18    11    12   ar
    19    11    14    1
    20    12    13   ar
    21    12    17    1
    22    13    37    1
    23    14    15    1
    24    14    25    2
    25    15    16    1
    26    15    38    1
    27    15    39    1
    28    16    17    1
    29    16    18    1
    30    16    40    1
    31    18    19   ar
    32    18    23   ar
    33    19    20   ar
    34    19    41    1
    35    20    21   ar
    36    20    42    1
    37    21    22   ar
    38    21    24    1
    39    22    23   ar
    40    22    43    1
    41    23    44    1
    42    24    45    1
    43    26    46    1
    44    27    47    1
    45    28    48    1
    46    29    49    1
    47    30    50    1
    48     1    31    1
    49     1    27    1
    50     2    32    1
    51     2    28    1
    52     4    34    1
    53     4    30    1
