@<TRIPOS>MOLECULE
*****
 50 53 0 0 0
SMALL
GASTEIGER

@<TRIPOS>ATOM
     1 C         -1.564343   -0.94645   1.194935 C.3        1 UNL1     0.1889
     2 C         -1.094832   0.013352   0.068755 C.3        1 UNL1     0.1342
     3 C         -1.569417   1.4662   0.225172 C.3        1 UNL1     0.1174
     4 C         -2.965285   1.571164   0.844568 C.3        1 UNL1     0.1456
     5 C         -3.130871   0.670992   2.082565 C.3        1 UNL1     0.2326
     6 O         -2.849224   -0.683947   1.739516 O.3        1 UNL1     -0.3076
     7 O         -2.390785   1.130192   3.228309 O.3        1 UNL1     -0.4605
     8 C         -2.277408   2.501867   3.366807 C.ar        1 UNL1     0.1310
     9 C         -1.932305   3.393668   2.345585 C.ar        1 UNL1     0.0226
     10 C         -1.860206   4.771672   2.581826 C.ar        1 UNL1     0.1343
     11 C         -2.154982   5.294043   3.840427 C.ar        1 UNL1     0.1007
     12 C         -2.460827   4.409898   4.878468 C.ar        1 UNL1     0.1389
     13 C         -2.530676   3.024143   4.641328 C.ar        1 UNL1     0.0229
     14 C         -2.176114   6.747718   4.124217 C.2        1 UNL1     0.1740
     15 C         -2.728803   7.139927   5.462968 C.3        1 UNL1     0.0520
     16 C         -2.227339   6.145729   6.501266 C.3        1 UNL1     0.1322
     17 O         -2.662192   4.805963   6.180333 O.3        1 UNL1     -0.4828
     18 C         -0.732235   6.272054   6.803643 C.ar        1 UNL1     -0.0067
     19 C         -0.160357   5.473363   7.815207 C.ar        1 UNL1     -0.0516
     20 C         1.193475   5.59775   8.149318 C.ar        1 UNL1     -0.0198
     21 C         1.982519   6.520238   7.485801 C.ar        1 UNL1     0.1169
     22 C         1.456108   7.297395   6.462202 C.ar        1 UNL1     -0.0198
     23 C         0.106705   7.160176   6.115302 C.ar        1 UNL1     -0.0516
     24 O         3.287449   6.639886   7.864275 O.3        1 UNL1     -0.5068
     25 O         -1.84488   7.601295   3.305575 O.2        1 UNL1     -0.2917
     26 O         -1.51682   5.587401   1.543435 O.3        1 UNL1     -0.5058
     27 O         -0.594535   -1.142157   2.211773 O.3        1 UNL1     -0.3648
     28 O         -1.606384   -0.47161   -1.186566 O.3        1 UNL1     -0.3841
     29 O         -0.59493   2.245763   0.921441 O.3        1 UNL1     -0.3863
     30 O         -3.950526   1.191208   -0.140635 O.3        1 UNL1     -0.3829
     31 H         -1.677612   -1.934922   0.736491 H        1 UNL1     0.0937
     32 H         0.0   0.0   0.0 H        1 UNL1     0.0671
     33 H         -1.633276   1.908076   -0.779013 H        1 UNL1     0.0649
     34 H         -3.173975   2.610226   1.122414 H        1 UNL1     0.0683
     35 H         -4.203135   0.726533   2.308493 H        1 UNL1     0.1085
     36 H         -1.746277   3.055607   1.332062 H        1 UNL1     0.0691
     37 H         -2.76981   2.356877   5.466593 H        1 UNL1     0.0691
     38 H         -3.821348   7.117232   5.38977 H        1 UNL1     0.0385
     39 H         -2.422517   8.166568   5.690949 H        1 UNL1     0.0385
     40 H         -2.735769   6.380439   7.446216 H        1 UNL1     0.0789
     41 H         -0.760692   4.748343   8.357052 H        1 UNL1     0.0623
     42 H         1.619921   4.984553   8.939346 H        1 UNL1     0.0654
     43 H         2.068677   8.012241   5.925858 H        1 UNL1     0.0654
     44 H         -0.268601   7.775889   5.303583 H        1 UNL1     0.0623
     45 H         3.315102   6.814659   8.818951 H        1 UNL1     0.2921
     46 H         -0.741177   6.115674   1.789843 H        1 UNL1     0.2922
     47 H         0.221211   -0.671064   1.991569 H        1 UNL1     0.2126
     48 H         -0.842703   -0.825515   -1.681817 H        1 UNL1     0.2101
     49 H         0.297471   1.975019   0.652905 H        1 UNL1     0.2100
     50 H         -4.730616   0.836703   0.334231 H        1 UNL1     0.2102
@<TRIPOS>BOND
     1     1     2    1
     2     1     6    1
     3     2     3    1
     4     3     4    1
     5     3    29    1
     6     3    33    1
     7     4     5    1
     8     5     6    1
     9     5     7    1
    10     5    35    1
    11     7     8    1
    12     8     9   ar
    13     8    13   ar
    14     9    10   ar
    15     9    36    1
    16    10    11   ar
    17    10    26    1
    18    11    12   ar
    19    11    14    1
    20    12    13   ar
    21    12    17    1
    22    13    37    1
    23    14    15    1
    24    14    25    2
    25    15    16    1
    26    15    38    1
    27    15    39    1
    28    16    17    1
    29    16    18    1
    30    16    40    1
    31    18    19   ar
    32    18    23   ar
    33    19    20   ar
    34    19    41    1
    35    20    21   ar
    36    20    42    1
    37    21    22   ar
    38    21    24    1
    39    22    23   ar
    40    22    43    1
    41    23    44    1
    42    24    45    1
    43    26    46    1
    44    27    47    1
    45    28    48    1
    46    29    49    1
    47    30    50    1
    48     1    31    1
    49     1    27    1
    50     2    32    1
    51     2    28    1
    52     4    34    1
    53     4    30    1
