@<TRIPOS>MOLECULE
*****
 50 53 0 0 0
SMALL
GASTEIGER

@<TRIPOS>ATOM
     1 C         -2.168057   -0.221746   -0.145467 C.3        1 UNL1     0.1889
     2 C         -0.775693   0.054601   -0.773874 C.3        1 UNL1     0.1342
     3 C         -0.658515   1.3998   -1.506794 C.3        1 UNL1     0.1174
     4 C         -1.955867   1.807941   -2.20923 C.3        1 UNL1     0.1456
     5 C         -3.193414   1.636048   -1.309623 C.3        1 UNL1     0.2326
     6 O         -3.284584   0.285688   -0.861201 O.3        1 UNL1     -0.3076
     7 O         -3.260339   2.59401   -0.237638 O.3        1 UNL1     -0.4605
     8 C         -4.530547   2.965654   0.164827 C.ar        1 UNL1     0.1310
     9 C         -5.583713   3.308127   -0.690074 C.ar        1 UNL1     0.0226
     10 C         -6.842405   3.655067   -0.184873 C.ar        1 UNL1     0.1343
     11 C         -7.085429   3.644863   1.187962 C.ar        1 UNL1     0.1007
     12 C         -6.03022   3.344421   2.053441 C.ar        1 UNL1     0.1389
     13 C         -4.76398   2.998178   1.545324 C.ar        1 UNL1     0.0229
     14 C         -8.418372   3.92133   1.7719 C.2        1 UNL1     0.1740
     15 C         -8.552633   3.648985   3.241373 C.3        1 UNL1     0.0520
     16 C         -7.280531   4.115103   3.935958 C.3        1 UNL1     0.1322
     17 O         -6.128658   3.409319   3.423975 O.3        1 UNL1     -0.4828
     18 C         -7.124363   5.637098   3.979171 C.ar        1 UNL1     -0.0067
     19 C         -5.899692   6.218883   3.591974 C.ar        1 UNL1     -0.0516
     20 C         -5.707568   7.603722   3.664581 C.ar        1 UNL1     -0.0198
     21 C         -6.727512   8.415049   4.128577 C.ar        1 UNL1     0.1169
     22 C         -7.956253   7.875026   4.485522 C.ar        1 UNL1     -0.0198
     23 C         -8.1549   6.492094   4.395548 C.ar        1 UNL1     -0.0516
     24 O         -6.490904   9.755138   4.221196 O.3        1 UNL1     -0.5068
     25 O         -9.388449   4.273363   1.105936 O.2        1 UNL1     -0.2917
     26 O         -7.826758   3.979983   -1.072039 O.3        1 UNL1     -0.5058
     27 O         -2.239744   0.100928   1.234218 O.3        1 UNL1     -0.3648
     28 O         -0.494297   -0.98167   -1.732865 O.3        1 UNL1     -0.3841
     29 O         -0.161265   2.413101   -0.630383 O.3        1 UNL1     -0.3863
     30 O         -2.127509   1.000076   -3.39396 O.3        1 UNL1     -0.3829
     31 H         -2.315553   -1.306805   -0.176644 H        1 UNL1     0.0937
     32 H         0.0   0.0   0.0 H        1 UNL1     0.0671
     33 H         0.105482   1.290028   -2.289085 H        1 UNL1     0.0649
     34 H         -1.890513   2.85071   -2.539021 H        1 UNL1     0.0683
     35 H         -4.039092   1.804617   -1.988071 H        1 UNL1     0.1085
     36 H         -5.474481   3.280868   -1.768705 H        1 UNL1     0.0691
     37 H         -3.958787   2.769494   2.240205 H        1 UNL1     0.0691
     38 H         -8.698495   2.570735   3.366386 H        1 UNL1     0.0385
     39 H         -9.443273   4.160959   3.621402 H        1 UNL1     0.0385
     40 H         -7.351065   3.800298   4.98593 H        1 UNL1     0.0789
     41 H         -5.080444   5.60276   3.232983 H        1 UNL1     0.0623
     42 H         -4.754578   8.039151   3.374369 H        1 UNL1     0.0654
     43 H         -8.766838   8.50277   4.835948 H        1 UNL1     0.0654
     44 H         -9.130936   6.105539   4.672629 H        1 UNL1     0.0623
     45 H         -5.757922   9.894943   4.842411 H        1 UNL1     0.2921
     46 H         -8.593467   3.402486   -0.930388 H        1 UNL1     0.2922
     47 H         -1.550506   -0.368893   1.724197 H        1 UNL1     0.2126
     48 H         -0.459186   -1.82123   -1.235232 H        1 UNL1     0.2101
     49 H         0.771421   2.242158   -0.423817 H        1 UNL1     0.2100
     50 H         -1.40995   1.227882   -4.020797 H        1 UNL1     0.2102
@<TRIPOS>BOND
     1     1     2    1
     2     1     6    1
     3     2     3    1
     4     3     4    1
     5     3    29    1
     6     3    33    1
     7     4     5    1
     8     5     6    1
     9     5     7    1
    10     5    35    1
    11     7     8    1
    12     8     9   ar
    13     8    13   ar
    14     9    10   ar
    15     9    36    1
    16    10    11   ar
    17    10    26    1
    18    11    12   ar
    19    11    14    1
    20    12    13   ar
    21    12    17    1
    22    13    37    1
    23    14    15    1
    24    14    25    2
    25    15    16    1
    26    15    38    1
    27    15    39    1
    28    16    17    1
    29    16    18    1
    30    16    40    1
    31    18    19   ar
    32    18    23   ar
    33    19    20   ar
    34    19    41    1
    35    20    21   ar
    36    20    42    1
    37    21    22   ar
    38    21    24    1
    39    22    23   ar
    40    22    43    1
    41    23    44    1
    42    24    45    1
    43    26    46    1
    44    27    47    1
    45    28    48    1
    46    29    49    1
    47    30    50    1
    48     1    31    1
    49     1    27    1
    50     2    32    1
    51     2    28    1
    52     4    34    1
    53     4    30    1
