@<TRIPOS>MOLECULE
*****
 50 53 0 0 0
SMALL
GASTEIGER

@<TRIPOS>ATOM
     1 C         -0.313436   -1.360759   1.679553 C.3        1 UNL1     0.1889
     2 C         -0.455282   -0.981616   0.180863 C.3        1 UNL1     0.1342
     3 C         -1.899405   -0.968444   -0.343351 C.3        1 UNL1     0.1174
     4 C         -2.775162   -2.044895   0.30273 C.3        1 UNL1     0.1456
     5 C         -2.614014   -2.096839   1.832991 C.3        1 UNL1     0.2326
     6 O         -1.245695   -2.312683   2.170603 O.3        1 UNL1     -0.3076
     7 O         -3.191931   -0.965299   2.508972 O.3        1 UNL1     -0.4605
     8 C         -3.70298   -1.209234   3.771055 C.ar        1 UNL1     0.1310
     9 C         -4.517831   -2.291593   4.120078 C.ar        1 UNL1     0.0226
     10 C         -4.972334   -2.461449   5.433272 C.ar        1 UNL1     0.1343
     11 C         -4.603076   -1.565204   6.435387 C.ar        1 UNL1     0.1007
     12 C         -3.823471   -0.457898   6.090607 C.ar        1 UNL1     0.1389
     13 C         -3.368779   -0.285888   4.769585 C.ar        1 UNL1     0.0229
     14 C         -4.985412   -1.742701   7.855411 C.2        1 UNL1     0.1740
     15 C         -4.319551   -0.81416   8.828031 C.3        1 UNL1     0.0520
     16 C         -4.25193   0.571908   8.201772 C.3        1 UNL1     0.1322
     17 O         -3.491569   0.543205   6.973726 O.3        1 UNL1     -0.4828
     18 C         -5.612301   1.264383   8.089552 C.ar        1 UNL1     -0.0067
     19 C         -5.696397   2.53015   7.473942 C.ar        1 UNL1     -0.0516
     20 C         -6.916762   3.211888   7.397099 C.ar        1 UNL1     -0.0198
     21 C         -8.056234   2.6431   7.937386 C.ar        1 UNL1     0.1169
     22 C         -8.011707   1.38327   8.520211 C.ar        1 UNL1     -0.0198
     23 C         -6.795053   0.693241   8.580766 C.ar        1 UNL1     -0.0516
     24 O         -9.219225   3.353211   7.877427 O.3        1 UNL1     -0.5068
     25 O         -5.733109   -2.63455   8.24789 O.2        1 UNL1     -0.2917
     26 O         -5.765049   -3.537479   5.707766 O.3        1 UNL1     -0.5058
     27 O         -0.209924   -0.237202   2.539606 O.3        1 UNL1     -0.3648
     28 O         0.276512   -1.941619   -0.603724 O.3        1 UNL1     -0.3841
     29 O         -2.464364   0.340107   -0.240172 O.3        1 UNL1     -0.3863
     30 O         -2.422899   -3.333905   -0.245041 O.3        1 UNL1     -0.3829
     31 H         0.651049   -1.869712   1.783546 H        1 UNL1     0.0937
     32 H         0.0   0.0   0.0 H        1 UNL1     0.0671
     33 H         -1.867503   -1.188439   -1.419596 H        1 UNL1     0.0649
     34 H         -3.827904   -1.868491   0.055717 H        1 UNL1     0.0683
     35 H         -3.161375   -3.001486   2.126058 H        1 UNL1     0.1085
     36 H         -4.793872   -3.053296   3.399154 H        1 UNL1     0.0691
     37 H         -2.763999   0.585171   4.526706 H        1 UNL1     0.0691
     38 H         -3.316758   -1.206854   9.027342 H        1 UNL1     0.0385
     39 H         -4.881021   -0.81663   9.768522 H        1 UNL1     0.0385
     40 H         -3.659106   1.203648   8.877038 H        1 UNL1     0.0789
     41 H         -4.814581   3.002019   7.050396 H        1 UNL1     0.0623
     42 H         -6.966395   4.192604   6.930469 H        1 UNL1     0.0654
     43 H         -8.900952   0.922028   8.933017 H        1 UNL1     0.0654
     44 H         -6.798978   -0.293506   9.033712 H        1 UNL1     0.0623
     45 H         -9.104874   4.172499   8.385766 H        1 UNL1     0.2921
     46 H         -5.373169   -4.051867   6.431124 H        1 UNL1     0.2922
     47 H         0.514941   0.336714   2.254913 H        1 UNL1     0.2126
     48 H         1.216699   -1.845449   -0.357693 H        1 UNL1     0.2101
     49 H         -2.039101   0.934455   -0.878683 H        1 UNL1     0.2100
     50 H         -2.667083   -3.335273   -1.193769 H        1 UNL1     0.2102
@<TRIPOS>BOND
     1     1     2    1
     2     1     6    1
     3     2     3    1
     4     3     4    1
     5     3    29    1
     6     3    33    1
     7     4     5    1
     8     5     6    1
     9     5     7    1
    10     5    35    1
    11     7     8    1
    12     8     9   ar
    13     8    13   ar
    14     9    10   ar
    15     9    36    1
    16    10    11   ar
    17    10    26    1
    18    11    12   ar
    19    11    14    1
    20    12    13   ar
    21    12    17    1
    22    13    37    1
    23    14    15    1
    24    14    25    2
    25    15    16    1
    26    15    38    1
    27    15    39    1
    28    16    17    1
    29    16    18    1
    30    16    40    1
    31    18    19   ar
    32    18    23   ar
    33    19    20   ar
    34    19    41    1
    35    20    21   ar
    36    20    42    1
    37    21    22   ar
    38    21    24    1
    39    22    23   ar
    40    22    43    1
    41    23    44    1
    42    24    45    1
    43    26    46    1
    44    27    47    1
    45    28    48    1
    46    29    49    1
    47    30    50    1
    48     1    31    1
    49     1    27    1
    50     2    32    1
    51     2    28    1
    52     4    34    1
    53     4    30    1
