@<TRIPOS>MOLECULE
*****
 50 53 0 0 0
SMALL
GASTEIGER

@<TRIPOS>ATOM
     1 C         1.591799   -0.191661   1.483322 C.3        1 UNL1     0.1889
     2 C         0.192586   -0.562167   0.922193 C.3        1 UNL1     0.1342
     3 C         -0.970901   -0.335308   1.899587 C.3        1 UNL1     0.1174
     4 C         -0.586142   -0.612823   3.354944 C.3        1 UNL1     0.1456
     5 C         0.756465   0.032568   3.743843 C.3        1 UNL1     0.2326
     6 O         1.786575   -0.424575   2.870481 O.3        1 UNL1     -0.3076
     7 O         0.69513   1.466943   3.844482 O.3        1 UNL1     -0.4605
     8 C         0.475662   1.976917   5.111481 C.ar        1 UNL1     0.1310
     9 C         1.175104   1.60836   6.265712 C.ar        1 UNL1     0.0226
     10 C         0.889757   2.196528   7.50367 C.ar        1 UNL1     0.1343
     11 C         -0.08668   3.185685   7.613122 C.ar        1 UNL1     0.1007
     12 C         -0.820016   3.532709   6.475327 C.ar        1 UNL1     0.1389
     13 C         -0.534721   2.939266   5.231196 C.ar        1 UNL1     0.0229
     14 C         -0.371115   3.899878   8.879289 C.2        1 UNL1     0.1740
     15 C         -1.289256   5.081309   8.766213 C.3        1 UNL1     0.0520
     16 C         -2.40852   4.730495   7.795578 C.3        1 UNL1     0.1322
     17 O         -1.875355   4.41492   6.490504 O.3        1 UNL1     -0.4828
     18 C         -3.398054   3.699024   8.342949 C.ar        1 UNL1     -0.0067
     19 C         -3.688906   3.682517   9.722567 C.ar        1 UNL1     -0.0516
     20 C         -4.552667   2.722484   10.263137 C.ar        1 UNL1     -0.0198
     21 C         -5.124863   1.771178   9.437647 C.ar        1 UNL1     0.1169
     22 C         -4.884066   1.782266   8.069899 C.ar        1 UNL1     -0.0198
     23 C         -4.034864   2.753549   7.526282 C.ar        1 UNL1     -0.0516
     24 O         -5.931004   0.828844   10.005577 O.3        1 UNL1     -0.5068
     25 O         0.158859   3.614982   9.950012 O.2        1 UNL1     -0.2917
     26 O         1.607473   1.791884   8.591204 O.3        1 UNL1     -0.5058
     27 O         2.028431   1.103626   1.103362 O.3        1 UNL1     -0.3648
     28 O         0.195274   -1.959709   0.576397 O.3        1 UNL1     -0.3841
     29 O         -1.541968   0.9617   1.715783 O.3        1 UNL1     -0.3863
     30 O         -0.490581   -2.039776   3.555847 O.3        1 UNL1     -0.3829
     31 H         2.309233   -0.868635   1.006798 H        1 UNL1     0.0937
     32 H         -0.0   0.0   0.0 H        1 UNL1     0.0671
     33 H         -1.769244   -1.044915   1.641078 H        1 UNL1     0.0649
     34 H         -1.371217   -0.246549   4.025691 H        1 UNL1     0.0683
     35 H         0.972029   -0.382846   4.736235 H        1 UNL1     0.1085
     36 H         1.983538   0.886079   6.236337 H        1 UNL1     0.0691
     37 H         -1.120808   3.225986   4.360687 H        1 UNL1     0.0691
     38 H         -0.697738   5.926405   8.398182 H        1 UNL1     0.0385
     39 H         -1.669114   5.337211   9.761201 H        1 UNL1     0.0385
     40 H         -2.998207   5.643669   7.637774 H        1 UNL1     0.0789
     41 H         -3.245277   4.412833   10.393002 H        1 UNL1     0.0623
     42 H         -4.759707   2.712843   11.330402 H        1 UNL1     0.0654
     43 H         -5.338782   1.051197   7.412113 H        1 UNL1     0.0654
     44 H         -3.877435   2.739039   6.452108 H        1 UNL1     0.0623
     45 H         -6.742394   1.264439   10.313181 H        1 UNL1     0.2921
     46 H         1.025423   1.752333   9.366488 H        1 UNL1     0.2922
     47 H         2.839417   1.335874   1.576885 H        1 UNL1     0.2126
     48 H         0.324869   -2.453569   1.408887 H        1 UNL1     0.2101
     49 H         -2.49265   0.934068   1.908743 H        1 UNL1     0.2100
     50 H         -0.216386   -2.445989   2.707602 H        1 UNL1     0.2102
@<TRIPOS>BOND
     1     1     2    1
     2     1     6    1
     3     2     3    1
     4     3     4    1
     5     3    29    1
     6     3    33    1
     7     4     5    1
     8     5     6    1
     9     5     7    1
    10     5    35    1
    11     7     8    1
    12     8     9   ar
    13     8    13   ar
    14     9    10   ar
    15     9    36    1
    16    10    11   ar
    17    10    26    1
    18    11    12   ar
    19    11    14    1
    20    12    13   ar
    21    12    17    1
    22    13    37    1
    23    14    15    1
    24    14    25    2
    25    15    16    1
    26    15    38    1
    27    15    39    1
    28    16    17    1
    29    16    18    1
    30    16    40    1
    31    18    19   ar
    32    18    23   ar
    33    19    20   ar
    34    19    41    1
    35    20    21   ar
    36    20    42    1
    37    21    22   ar
    38    21    24    1
    39    22    23   ar
    40    22    43    1
    41    23    44    1
    42    24    45    1
    43    26    46    1
    44    27    47    1
    45    28    48    1
    46    29    49    1
    47    30    50    1
    48     1    31    1
    49     1    27    1
    50     2    32    1
    51     2    28    1
    52     4    34    1
    53     4    30    1
