@<TRIPOS>MOLECULE
*****
 50 53 0 0 0
SMALL
GASTEIGER

@<TRIPOS>ATOM
     1 C         1.710392   0.054146   -1.357362 C.3        1 UNL1     0.1889
     2 C         1.003616   -0.438157   -0.065834 C.3        1 UNL1     0.1342
     3 C         1.765888   -0.142247   1.234875 C.3        1 UNL1     0.1174
     4 C         3.284834   -0.225754   1.064736 C.3        1 UNL1     0.1456
     5 C         3.779835   0.516044   -0.190284 C.3        1 UNL1     0.2326
     6 O         3.129289   -0.001108   -1.348823 O.3        1 UNL1     -0.3076
     7 O         3.689476   1.948365   -0.082522 O.3        1 UNL1     -0.4605
     8 C         3.949486   2.660928   -1.239318 C.ar        1 UNL1     0.1310
     9 C         4.491335   2.128835   -2.414298 C.ar        1 UNL1     0.0226
     10 C         4.702088   2.931018   -3.542123 C.ar        1 UNL1     0.1343
     11 C         4.353605   4.280928   -3.530134 C.ar        1 UNL1     0.1007
     12 C         3.849885   4.832883   -2.349288 C.ar        1 UNL1     0.1389
     13 C         3.640532   4.02667   -1.214553 C.ar        1 UNL1     0.0229
     14 C         4.476595   5.154978   -4.719699 C.2        1 UNL1     0.1740
     15 C         3.850321   6.512856   -4.595218 C.3        1 UNL1     0.0520
     16 C         4.131795   7.046947   -3.197549 C.3        1 UNL1     0.1322
     17 O         3.574862   6.171532   -2.192291 O.3        1 UNL1     -0.4828
     18 C         5.596288   7.427286   -2.966624 C.ar        1 UNL1     -0.0067
     19 C         5.913803   8.406808   -2.003331 C.ar        1 UNL1     -0.0516
     20 C         7.238435   8.811994   -1.800512 C.ar        1 UNL1     -0.0198
     21 C         8.251467   8.251839   -2.55802 C.ar        1 UNL1     0.1169
     22 C         7.974167   7.260967   -3.490821 C.ar        1 UNL1     -0.0198
     23 C         6.651785   6.842355   -3.680891 C.ar        1 UNL1     -0.0516
     24 O         9.524738   8.698606   -2.359069 O.3        1 UNL1     -0.5068
     25 O         4.981198   4.789349   -5.778083 O.2        1 UNL1     -0.2917
     26 O         5.234928   2.35099   -4.656229 O.3        1 UNL1     -0.5058
     27 O         1.237937   1.310634   -1.816503 O.3        1 UNL1     -0.3648
     28 O         0.840245   -1.865995   -0.151255 O.3        1 UNL1     -0.3841
     29 O         1.339813   1.098675   1.801183 O.3        1 UNL1     -0.3863
     30 O         3.675165   -1.612838   0.968155 O.3        1 UNL1     -0.3829
     31 H         1.431669   -0.645749   -2.152686 H        1 UNL1     0.0937
     32 H         0.0   0.0   0.0 H        1 UNL1     0.0671
     33 H         1.485741   -0.909812   1.969777 H        1 UNL1     0.0649
     34 H         3.783426   0.186729   1.948855 H        1 UNL1     0.0683
     35 H         4.837233   0.232868   -0.265104 H        1 UNL1     0.1085
     36 H         4.730887   1.075079   -2.505578 H        1 UNL1     0.0691
     37 H         3.248219   4.480787   -0.30716 H        1 UNL1     0.0691
     38 H         2.774418   6.398162   -4.764941 H        1 UNL1     0.0385
     39 H         4.252148   7.166485   -5.376936 H        1 UNL1     0.0385
     40 H         3.567827   7.983276   -3.089163 H        1 UNL1     0.0789
     41 H         5.135647   8.868275   -1.402355 H        1 UNL1     0.0623
     42 H         7.46911   9.576782   -1.063016 H        1 UNL1     0.0654
     43 H         8.761637   6.80485   -4.078833 H        1 UNL1     0.0654
     44 H         6.472768   6.058531   -4.41056 H        1 UNL1     0.0623
     45 H         9.506706   9.377169   -1.664848 H        1 UNL1     0.2921
     46 H         4.520371   2.092034   -5.259357 H        1 UNL1     0.2922
     47 H         0.552494   1.647842   -1.222938 H        1 UNL1     0.2126
     48 H         -0.116053   -2.032138   -0.259058 H        1 UNL1     0.2101
     49 H         0.425709   1.020471   2.117558 H        1 UNL1     0.2100
     50 H         3.150383   -2.119941   1.621732 H        1 UNL1     0.2102
@<TRIPOS>BOND
     1     1     2    1
     2     1     6    1
     3     2     3    1
     4     3     4    1
     5     3    29    1
     6     3    33    1
     7     4     5    1
     8     5     6    1
     9     5     7    1
    10     5    35    1
    11     7     8    1
    12     8     9   ar
    13     8    13   ar
    14     9    10   ar
    15     9    36    1
    16    10    11   ar
    17    10    26    1
    18    11    12   ar
    19    11    14    1
    20    12    13   ar
    21    12    17    1
    22    13    37    1
    23    14    15    1
    24    14    25    2
    25    15    16    1
    26    15    38    1
    27    15    39    1
    28    16    17    1
    29    16    18    1
    30    16    40    1
    31    18    19   ar
    32    18    23   ar
    33    19    20   ar
    34    19    41    1
    35    20    21   ar
    36    20    42    1
    37    21    22   ar
    38    21    24    1
    39    22    23   ar
    40    22    43    1
    41    23    44    1
    42    24    45    1
    43    26    46    1
    44    27    47    1
    45    28    48    1
    46    29    49    1
    47    30    50    1
    48     1    31    1
    49     1    27    1
    50     2    32    1
    51     2    28    1
    52     4    34    1
    53     4    30    1
