@<TRIPOS>MOLECULE
*****
 50 53 0 0 0
SMALL
GASTEIGER

@<TRIPOS>ATOM
     1 C         -0.169881   -1.237198   1.792006 C.3        1 UNL1     0.1889
     2 C         -0.371497   -0.99583   0.271798 C.3        1 UNL1     0.1342
     3 C         -1.822201   -1.139107   -0.213377 C.3        1 UNL1     0.1174
     4 C         -2.595866   -2.223472   0.540753 C.3        1 UNL1     0.1456
     5 C         -2.400592   -2.135646   2.06539 C.3        1 UNL1     0.2326
     6 O         -1.01292   -2.215115   2.383072 O.3        1 UNL1     -0.3076
     7 O         -3.053688   -1.000635   2.662497 O.3        1 UNL1     -0.4605
     8 C         -3.507811   -1.174537   3.957509 C.ar        1 UNL1     0.1310
     9 C         -4.218318   -2.285463   4.424763 C.ar        1 UNL1     0.0226
     10 C         -4.621005   -2.376719   5.762454 C.ar        1 UNL1     0.1343
     11 C         -4.301905   -1.369147   6.671748 C.ar        1 UNL1     0.1007
     12 C         -3.628502   -0.235975   6.207816 C.ar        1 UNL1     0.1389
     13 C         -3.226022   -0.143248   4.86214 C.ar        1 UNL1     0.0229
     14 C         -4.629166   -1.452743   8.113992 C.2        1 UNL1     0.1740
     15 C         -4.018173   -0.391356   8.980995 C.3        1 UNL1     0.0520
     16 C         -4.085176   0.935599   8.237585 C.3        1 UNL1     0.1322
     17 O         -3.358719   0.862246   6.99101 O.3        1 UNL1     -0.4828
     18 C         -5.501838   1.501713   8.11386 C.ar        1 UNL1     -0.0067
     19 C         -5.961876   1.948455   6.858073 C.ar        1 UNL1     -0.0516
     20 C         -7.234516   2.51511   6.719321 C.ar        1 UNL1     -0.0198
     21 C         -8.051957   2.647033   7.82757 C.ar        1 UNL1     0.1169
     22 C         -7.640096   2.185916   9.071186 C.ar        1 UNL1     -0.0198
     23 C         -6.374718   1.602387   9.206719 C.ar        1 UNL1     -0.0516
     24 O         -9.269785   3.238259   7.661 O.3        1 UNL1     -0.5068
     25 O         -5.287735   -2.365228   8.606071 O.2        1 UNL1     -0.2917
     26 O         -5.312021   -3.486052   6.154196 O.3        1 UNL1     -0.5058
     27 O         -0.139563   -0.041582   2.555137 O.3        1 UNL1     -0.3648
     28 O         0.419046   -1.957392   -0.451491 O.3        1 UNL1     -0.3841
     29 O         -2.487985   0.125301   -0.201676 O.3        1 UNL1     -0.3863
     30 O         -2.152484   -3.521945   0.09012 O.3        1 UNL1     -0.3829
     31 H         0.834152   -1.658806   1.911355 H        1 UNL1     0.0937
     32 H         0.0   0.0   0.0 H        1 UNL1     0.0671
     33 H         -1.79425   -1.444377   -1.26872 H        1 UNL1     0.0649
     34 H         -3.664072   -2.151003   0.308189 H        1 UNL1     0.0683
     35 H         -2.867781   -3.052909   2.445182 H        1 UNL1     0.1085
     36 H         -4.448331   -3.127265   3.780881 H        1 UNL1     0.0691
     37 H         -2.703984   0.749937   4.525703 H        1 UNL1     0.0691
     38 H         -2.980693   -0.681572   9.178319 H        1 UNL1     0.0385
     39 H         -4.55169   -0.357746   9.937033 H        1 UNL1     0.0385
     40 H         -3.529868   1.67037   8.836136 H        1 UNL1     0.0789
     41 H         -5.335734   1.864402   5.974597 H        1 UNL1     0.0623
     42 H         -7.573181   2.866702   5.747879 H        1 UNL1     0.0654
     43 H         -8.278135   2.270579   9.942764 H        1 UNL1     0.0654
     44 H         -6.089665   1.243474   10.190981 H        1 UNL1     0.0623
     45 H         -9.129866   4.142525   7.336279 H        1 UNL1     0.2921
     46 H         -4.84592   -3.914692   6.889335 H        1 UNL1     0.2922
     47 H         0.545246   0.55312   2.218645 H        1 UNL1     0.2126
     48 H         1.350252   -1.795299   -0.205904 H        1 UNL1     0.2101
     49 H         -2.118473   0.699233   -0.891499 H        1 UNL1     0.2100
     50 H         -2.409649   -3.618763   -0.850202 H        1 UNL1     0.2102
@<TRIPOS>BOND
     1     1     2    1
     2     1     6    1
     3     2     3    1
     4     3     4    1
     5     3    29    1
     6     3    33    1
     7     4     5    1
     8     5     6    1
     9     5     7    1
    10     5    35    1
    11     7     8    1
    12     8     9   ar
    13     8    13   ar
    14     9    10   ar
    15     9    36    1
    16    10    11   ar
    17    10    26    1
    18    11    12   ar
    19    11    14    1
    20    12    13   ar
    21    12    17    1
    22    13    37    1
    23    14    15    1
    24    14    25    2
    25    15    16    1
    26    15    38    1
    27    15    39    1
    28    16    17    1
    29    16    18    1
    30    16    40    1
    31    18    19   ar
    32    18    23   ar
    33    19    20   ar
    34    19    41    1
    35    20    21   ar
    36    20    42    1
    37    21    22   ar
    38    21    24    1
    39    22    23   ar
    40    22    43    1
    41    23    44    1
    42    24    45    1
    43    26    46    1
    44    27    47    1
    45    28    48    1
    46    29    49    1
    47    30    50    1
    48     1    31    1
    49     1    27    1
    50     2    32    1
    51     2    28    1
    52     4    34    1
    53     4    30    1
