@<TRIPOS>MOLECULE
*****
 50 53 0 0 0
SMALL
GASTEIGER

@<TRIPOS>ATOM
     1 C         0.023902   -1.152982   1.854957 C.3        1 UNL1     0.1889
     2 C         -0.258165   -1.012303   0.334895 C.3        1 UNL1     0.1342
     3 C         -1.704089   -1.324049   -0.080534 C.3        1 UNL1     0.1174
     4 C         -2.334953   -2.439172   0.757099 C.3        1 UNL1     0.1456
     5 C         -2.092391   -2.253132   2.266044 C.3        1 UNL1     0.2326
     6 O         -0.692851   -2.177708   2.52771 O.3        1 UNL1     -0.3076
     7 O         -2.834246   -1.159078   2.83527 O.3        1 UNL1     -0.4605
     8 C         -3.22957   -1.314617   4.151725 C.ar        1 UNL1     0.1310
     9 C         -3.807723   -2.467731   4.69336 C.ar        1 UNL1     0.0226
     10 C         -4.15916   -2.533841   6.046883 C.ar        1 UNL1     0.1343
     11 C         -3.918836   -1.455811   6.897727 C.ar        1 UNL1     0.1007
     12 C         -3.379768   -0.284196   6.359669 C.ar        1 UNL1     0.1389
     13 C         -3.028923   -0.217036   4.998115 C.ar        1 UNL1     0.0229
     14 C         -4.192981   -1.501537   8.352687 C.2        1 UNL1     0.1740
     15 C         -3.669239   -0.342474   9.148812 C.3        1 UNL1     0.0520
     16 C         -3.894536   0.932859   8.348359 C.3        1 UNL1     0.1322
     17 O         -3.201541   0.872732   7.082179 O.3        1 UNL1     -0.4828
     18 C         -5.365018   1.345511   8.247734 C.ar        1 UNL1     -0.0067
     19 C         -5.74757   2.320931   7.304113 C.ar        1 UNL1     -0.0516
     20 C         -7.075665   2.755395   7.218269 C.ar        1 UNL1     -0.0198
     21 C         -8.027045   2.228719   8.073439 C.ar        1 UNL1     0.1169
     22 C         -7.687596   1.242559   8.990555 C.ar        1 UNL1     -0.0198
     23 C         -6.363224   0.794579   9.0641 C.ar        1 UNL1     -0.0516
     24 O         -9.302704   2.703559   7.986144 O.3        1 UNL1     -0.5068
     25 O         -4.739207   -2.450988   8.908263 O.2        1 UNL1     -0.2917
     26 O         -4.720329   -3.687089   6.512386 O.3        1 UNL1     -0.5058
     27 O         -0.038445   0.07783   2.557811 O.3        1 UNL1     -0.3648
     28 O         0.598007   -1.926917   -0.374441 O.3        1 UNL1     -0.3841
     29 O         -2.493688   -0.13315   -0.101178 O.3        1 UNL1     -0.3863
     30 O         -1.779506   -3.708865   0.350836 O.3        1 UNL1     -0.3829
     31 H         1.069271   -1.465973   1.951489 H        1 UNL1     0.0937
     32 H         0.0   0.0   0.0 H        1 UNL1     0.0671
     33 H         -1.685047   -1.679554   -1.120233 H        1 UNL1     0.0649
     34 H         -3.412988   -2.485384   0.567088 H        1 UNL1     0.0683
     35 H         -2.449589   -3.191248   2.709019 H        1 UNL1     0.1085
     36 H         -3.96871   -3.35902   4.096864 H        1 UNL1     0.0691
     37 H         -2.611855   0.706993   4.603504 H        1 UNL1     0.0691
     38 H         -2.602005   -0.515874   9.323368 H        1 UNL1     0.0385
     39 H         -4.174896   -0.316464   10.120107 H        1 UNL1     0.0385
     40 H         -3.400441   1.748602   8.893294 H        1 UNL1     0.0789
     41 H         -5.017822   2.756445   6.627765 H        1 UNL1     0.0623
     42 H         -7.355849   3.516739   6.494485 H        1 UNL1     0.0654
     43 H         -8.42769   0.812465   9.654776 H        1 UNL1     0.0654
     44 H         -6.13562   0.015353   9.785105 H        1 UNL1     0.0623
     45 H         -9.300289   3.638898   8.246629 H        1 UNL1     0.2921
     46 H         -4.204459   -4.01708   7.264978 H        1 UNL1     0.2922
     47 H         0.554088   0.72573   2.151622 H        1 UNL1     0.2126
     48 H         1.51262   -1.608426   -0.248826 H        1 UNL1     0.2101
     49 H         -2.216358   0.433952   -0.838252 H        1 UNL1     0.2100
     50 H         -2.083936   -3.892927   -0.561937 H        1 UNL1     0.2102
@<TRIPOS>BOND
     1     1     2    1
     2     1     6    1
     3     2     3    1
     4     3     4    1
     5     3    29    1
     6     3    33    1
     7     4     5    1
     8     5     6    1
     9     5     7    1
    10     5    35    1
    11     7     8    1
    12     8     9   ar
    13     8    13   ar
    14     9    10   ar
    15     9    36    1
    16    10    11   ar
    17    10    26    1
    18    11    12   ar
    19    11    14    1
    20    12    13   ar
    21    12    17    1
    22    13    37    1
    23    14    15    1
    24    14    25    2
    25    15    16    1
    26    15    38    1
    27    15    39    1
    28    16    17    1
    29    16    18    1
    30    16    40    1
    31    18    19   ar
    32    18    23   ar
    33    19    20   ar
    34    19    41    1
    35    20    21   ar
    36    20    42    1
    37    21    22   ar
    38    21    24    1
    39    22    23   ar
    40    22    43    1
    41    23    44    1
    42    24    45    1
    43    26    46    1
    44    27    47    1
    45    28    48    1
    46    29    49    1
    47    30    50    1
    48     1    31    1
    49     1    27    1
    50     2    32    1
    51     2    28    1
    52     4    34    1
    53     4    30    1
