@<TRIPOS>MOLECULE
*****
 50 53 0 0 0
SMALL
GASTEIGER

@<TRIPOS>ATOM
     1 C         0.021582   1.357709   1.710837 C.3        1 UNL1     0.1889
     2 C         0.625156   0.193086   0.880601 C.3        1 UNL1     0.1342
     3 C         0.813923   -1.118334   1.658424 C.3        1 UNL1     0.1174
     4 C         1.194911   -0.889971   3.123284 C.3        1 UNL1     0.1456
     5 C         0.315859   0.176009   3.802488 C.3        1 UNL1     0.2326
     6 O         0.394291   1.402863   3.080306 O.3        1 UNL1     -0.3076
     7 O         -1.036401   -0.258807   4.034112 O.3        1 UNL1     -0.4605
     8 C         -1.900981   0.694079   4.542085 C.ar        1 UNL1     0.1310
     9 C         -3.245948   0.840129   4.185667 C.ar        1 UNL1     0.0226
     10 C         -4.046519   1.828379   4.770774 C.ar        1 UNL1     0.1343
     11 C         -3.527264   2.680036   5.744887 C.ar        1 UNL1     0.1007
     12 C         -2.174859   2.570618   6.07927 C.ar        1 UNL1     0.1389
     13 C         -1.36942   1.57858   5.48888 C.ar        1 UNL1     0.0229
     14 C         -4.34944   3.68623   6.456051 C.2        1 UNL1     0.1740
     15 C         -3.687481   4.358129   7.62306 C.3        1 UNL1     0.0520
     16 C         -2.239224   4.648388   7.253929 C.3        1 UNL1     0.1322
     17 O         -1.533878   3.426015   6.945126 O.3        1 UNL1     -0.4828
     18 C         -2.079734   5.75438   6.207952 C.ar        1 UNL1     -0.0067
     19 C         -0.963818   5.73687   5.346187 C.ar        1 UNL1     -0.0516
     20 C         -0.762824   6.758544   4.410374 C.ar        1 UNL1     -0.0198
     21 C         -1.664557   7.804731   4.331649 C.ar        1 UNL1     0.1169
     22 C         -2.790834   7.832514   5.143785 C.ar        1 UNL1     -0.0198
     23 C         -3.001839   6.801401   6.067008 C.ar        1 UNL1     -0.0516
     24 O         -1.415813   8.801249   3.434163 O.3        1 UNL1     -0.5068
     25 O         -5.523988   3.916526   6.180577 O.2        1 UNL1     -0.2917
     26 O         -5.350171   1.918837   4.37848 O.3        1 UNL1     -0.5058
     27 O         -1.379753   1.503739   1.544339 O.3        1 UNL1     -0.3648
     28 O         1.921347   0.597835   0.402299 O.3        1 UNL1     -0.3841
     29 O         -0.327335   -1.965283   1.508959 O.3        1 UNL1     -0.3863
     30 O         2.574202   -0.46774   3.193761 O.3        1 UNL1     -0.3829
     31 H         0.439757   2.283582   1.300997 H        1 UNL1     0.0937
     32 H         0.0   -0.0   0.0 H        1 UNL1     0.0671
     33 H         1.646441   -1.666112   1.195203 H        1 UNL1     0.0649
     34 H         1.118651   -1.830235   3.680499 H        1 UNL1     0.0683
     35 H         0.80423   0.343967   4.770559 H        1 UNL1     0.1085
     36 H         -3.723385   0.173492   3.4759 H        1 UNL1     0.0691
     37 H         -0.319229   1.514932   5.765541 H        1 UNL1     0.0691
     38 H         -3.74812   3.674714   8.476754 H        1 UNL1     0.0385
     39 H         -4.241325   5.269151   7.874208 H        1 UNL1     0.0385
     40 H         -1.744999   5.029722   8.157725 H        1 UNL1     0.0789
     41 H         -0.236711   4.931494   5.394501 H        1 UNL1     0.0623
     42 H         0.10788   6.739933   3.759574 H        1 UNL1     0.0654
     43 H         -3.511276   8.639244   5.080071 H        1 UNL1     0.0654
     44 H         -3.897895   6.849728   6.67823 H        1 UNL1     0.0623
     45 H         -1.986305   9.55695   3.649038 H        1 UNL1     0.2921
     46 H         -5.54861   1.207838   3.748785 H        1 UNL1     0.2922
     47 H         -1.580601   1.807203   0.647996 H        1 UNL1     0.2126
     48 H         2.575815   0.24508   1.035519 H        1 UNL1     0.2101
     49 H         -0.052711   -2.895842   1.52984 H        1 UNL1     0.2100
     50 H         2.969813   -0.580397   2.304653 H        1 UNL1     0.2102
@<TRIPOS>BOND
     1     1     2    1
     2     1     6    1
     3     2     3    1
     4     3     4    1
     5     3    29    1
     6     3    33    1
     7     4     5    1
     8     5     6    1
     9     5     7    1
    10     5    35    1
    11     7     8    1
    12     8     9   ar
    13     8    13   ar
    14     9    10   ar
    15     9    36    1
    16    10    11   ar
    17    10    26    1
    18    11    12   ar
    19    11    14    1
    20    12    13   ar
    21    12    17    1
    22    13    37    1
    23    14    15    1
    24    14    25    2
    25    15    16    1
    26    15    38    1
    27    15    39    1
    28    16    17    1
    29    16    18    1
    30    16    40    1
    31    18    19   ar
    32    18    23   ar
    33    19    20   ar
    34    19    41    1
    35    20    21   ar
    36    20    42    1
    37    21    22   ar
    38    21    24    1
    39    22    23   ar
    40    22    43    1
    41    23    44    1
    42    24    45    1
    43    26    46    1
    44    27    47    1
    45    28    48    1
    46    29    49    1
    47    30    50    1
    48     1    31    1
    49     1    27    1
    50     2    32    1
    51     2    28    1
    52     4    34    1
    53     4    30    1
