@<TRIPOS>MOLECULE
*****
 50 53 0 0 0
SMALL
GASTEIGER

@<TRIPOS>ATOM
     1 C         -0.196813   -2.116074   0.504281 C.3        1 UNL1     0.1889
     2 C         0.165841   -0.972173   -0.48056 C.3        1 UNL1     0.1342
     3 C         -0.59624   -1.008454   -1.81412 C.3        1 UNL1     0.1174
     4 C         -0.874806   -2.433061   -2.299933 C.3        1 UNL1     0.1456
     5 C         -1.425096   -3.340114   -1.184228 C.3        1 UNL1     0.2326
     6 O         -0.515232   -3.367309   -0.086833 O.3        1 UNL1     -0.3076
     7 O         -2.772192   -3.016437   -0.7945 O.3        1 UNL1     -0.4605
     8 C         -3.55329   -4.077905   -0.374144 C.ar        1 UNL1     0.1310
     9 C         -3.649973   -5.317097   -1.016294 C.ar        1 UNL1     0.0226
     10 C         -4.457842   -6.337961   -0.501428 C.ar        1 UNL1     0.1343
     11 C         -5.170795   -6.152337   0.682246 C.ar        1 UNL1     0.1007
     12 C         -5.114421   -4.905317   1.310375 C.ar        1 UNL1     0.1389
     13 C         -4.304114   -3.878121   0.791047 C.ar        1 UNL1     0.0229
     14 C         -5.973215   -7.224326   1.315583 C.2        1 UNL1     0.1740
     15 C         -6.488281   -6.9226   2.692252 C.3        1 UNL1     0.0520
     16 C         -6.951335   -5.472643   2.72635 C.3        1 UNL1     0.1322
     17 O         -5.859086   -4.578182   2.419755 O.3        1 UNL1     -0.4828
     18 C         -8.227676   -5.214347   1.922011 C.ar        1 UNL1     -0.0067
     19 C         -9.421589   -4.895511   2.601076 C.ar        1 UNL1     -0.0516
     20 C         -10.616977   -4.699956   1.899101 C.ar        1 UNL1     -0.0198
     21 C         -10.633108   -4.827373   0.521664 C.ar        1 UNL1     0.1169
     22 C         -9.466611   -5.107524   -0.178079 C.ar        1 UNL1     -0.0198
     23 C         -8.267289   -5.28494   0.522068 C.ar        1 UNL1     -0.0516
     24 O         -11.823544   -4.66714   -0.124545 O.3        1 UNL1     -0.5068
     25 O         -6.152521   -8.326501   0.80417 O.2        1 UNL1     -0.2917
     26 O         -4.509286   -7.522664   -1.176273 O.3        1 UNL1     -0.5058
     27 O         -1.154744   -1.739119   1.480528 O.3        1 UNL1     -0.3648
     28 O         1.569706   -1.061943   -0.786846 O.3        1 UNL1     -0.3841
     29 O         -1.77694   -0.206359   -1.745379 O.3        1 UNL1     -0.3863
     30 O         0.349389   -3.009234   -2.804968 O.3        1 UNL1     -0.3829
     31 H         0.708505   -2.32931   1.083081 H        1 UNL1     0.0937
     32 H         0.0   0.0   0.0 H        1 UNL1     0.0671
     33 H         0.036786   -0.53122   -2.575201 H        1 UNL1     0.0649
     34 H         -1.586473   -2.411761   -3.132687 H        1 UNL1     0.0683
     35 H         -1.416984   -4.342575   -1.630195 H        1 UNL1     0.1085
     36 H         -3.077319   -5.542854   -1.909167 H        1 UNL1     0.0691
     37 H         -4.2784   -2.916051   1.298248 H        1 UNL1     0.0691
     38 H         -5.667496   -7.091769   3.397391 H        1 UNL1     0.0385
     39 H         -7.296521   -7.621166   2.934187 H        1 UNL1     0.0385
     40 H         -7.212197   -5.240549   3.767793 H        1 UNL1     0.0789
     41 H         -9.437086   -4.798865   3.682773 H        1 UNL1     0.0623
     42 H         -11.533509   -4.466235   2.435156 H        1 UNL1     0.0654
     43 H         -9.46492   -5.194692   -1.258037 H        1 UNL1     0.0654
     44 H         -7.372943   -5.492243   -0.0576 H        1 UNL1     0.0623
     45 H         -11.852928   -3.770289   -0.495371 H        1 UNL1     0.2921
     46 H         -4.540151   -8.255627   -0.541273 H        1 UNL1     0.2922
     47 H         -0.744012   -1.701502   2.355596 H        1 UNL1     0.2126
     48 H         1.936252   -0.162488   -0.685076 H        1 UNL1     0.2101
     49 H         -2.547417   -0.768048   -1.564647 H        1 UNL1     0.2100
     50 H         0.699054   -3.619647   -2.123174 H        1 UNL1     0.2102
@<TRIPOS>BOND
     1     1     2    1
     2     1     6    1
     3     2     3    1
     4     3     4    1
     5     3    29    1
     6     3    33    1
     7     4     5    1
     8     5     6    1
     9     5     7    1
    10     5    35    1
    11     7     8    1
    12     8     9   ar
    13     8    13   ar
    14     9    10   ar
    15     9    36    1
    16    10    11   ar
    17    10    26    1
    18    11    12   ar
    19    11    14    1
    20    12    13   ar
    21    12    17    1
    22    13    37    1
    23    14    15    1
    24    14    25    2
    25    15    16    1
    26    15    38    1
    27    15    39    1
    28    16    17    1
    29    16    18    1
    30    16    40    1
    31    18    19   ar
    32    18    23   ar
    33    19    20   ar
    34    19    41    1
    35    20    21   ar
    36    20    42    1
    37    21    22   ar
    38    21    24    1
    39    22    23   ar
    40    22    43    1
    41    23    44    1
    42    24    45    1
    43    26    46    1
    44    27    47    1
    45    28    48    1
    46    29    49    1
    47    30    50    1
    48     1    31    1
    49     1    27    1
    50     2    32    1
    51     2    28    1
    52     4    34    1
    53     4    30    1
