@<TRIPOS>MOLECULE
*****
 50 53 0 0 0
SMALL
GASTEIGER

@<TRIPOS>ATOM
     1 C         0.604813   -1.511975   -1.455657 C.3        1 UNL1     0.1889
     2 C         0.302455   -1.054548   -0.003321 C.3        1 UNL1     0.1342
     3 C         1.463819   -1.245874   0.984147 C.3        1 UNL1     0.1174
     4 C         2.293629   -2.49785   0.68904 C.3        1 UNL1     0.1456
     5 C         2.648402   -2.632629   -0.80305 C.3        1 UNL1     0.2326
     6 O         1.457564   -2.639777   -1.587092 O.3        1 UNL1     -0.3076
     7 O         3.615596   -1.665974   -1.251865 O.3        1 UNL1     -0.4605
     8 C         3.110641   -0.43721   -1.637466 C.ar        1 UNL1     0.1310
     9 C         3.471447   0.796589   -1.085326 C.ar        1 UNL1     0.0226
     10 C         2.91473   1.991258   -1.557274 C.ar        1 UNL1     0.1343
     11 C         2.000577   1.983041   -2.609936 C.ar        1 UNL1     0.1007
     12 C         1.60164   0.753964   -3.141916 C.ar        1 UNL1     0.1389
     13 C         2.159577   -0.447324   -2.665423 C.ar        1 UNL1     0.0229
     14 C         1.444752   3.221138   -3.203507 C.2        1 UNL1     0.1740
     15 C         0.654419   3.037957   -4.465794 C.3        1 UNL1     0.0520
     16 C         -0.199393   1.785623   -4.322193 C.3        1 UNL1     0.1322
     17 O         0.629185   0.622122   -4.105873 O.3        1 UNL1     -0.4828
     18 C         -1.352711   1.936914   -3.327359 C.ar        1 UNL1     -0.0067
     19 C         -1.424606   3.091222   -2.52075 C.ar        1 UNL1     -0.0516
     20 C         -2.439299   3.239476   -1.56766 C.ar        1 UNL1     -0.0198
     21 C         -3.381653   2.23952   -1.406775 C.ar        1 UNL1     0.1169
     22 C         -3.356832   1.106247   -2.209218 C.ar        1 UNL1     -0.0198
     23 C         -2.353066   0.966094   -3.175068 C.ar        1 UNL1     -0.0516
     24 O         -4.332638   2.401917   -0.442588 O.3        1 UNL1     -0.5068
     25 O         1.667945   4.343769   -2.75812 O.2        1 UNL1     -0.2917
     26 O         3.308081   3.160844   -0.975098 O.3        1 UNL1     -0.5058
     27 O         1.002455   -0.452199   -2.310959 O.3        1 UNL1     -0.3648
     28 O         -0.812105   -1.818886   0.492917 O.3        1 UNL1     -0.3841
     29 O         2.25922   -0.061561   1.067043 O.3        1 UNL1     -0.3863
     30 O         1.549282   -3.666451   1.096482 O.3        1 UNL1     -0.3829
     31 H         -0.344569   -1.858126   -1.87866 H        1 UNL1     0.0937
     32 H         0.0   0.0   0.0 H        1 UNL1     0.0671
     33 H         1.033284   -1.378934   1.986472 H        1 UNL1     0.0649
     34 H         3.21598   -2.483105   1.280186 H        1 UNL1     0.0683
     35 H         3.087628   -3.635067   -0.881008 H        1 UNL1     0.1085
     36 H         4.218254   0.874594   -0.30282 H        1 UNL1     0.0691
     37 H         1.831407   -1.391106   -3.095625 H        1 UNL1     0.0691
     38 H         1.367247   2.937473   -5.291206 H        1 UNL1     0.0385
     39 H         0.04929   3.933502   -4.64355 H        1 UNL1     0.0385
     40 H         -0.676537   1.605839   -5.295092 H        1 UNL1     0.0789
     41 H         -0.691525   3.886278   -2.621388 H        1 UNL1     0.0623
     42 H         -2.477039   4.128873   -0.943512 H        1 UNL1     0.0654
     43 H         -4.098702   0.323923   -2.101937 H        1 UNL1     0.0654
     44 H         -2.370274   0.072619   -3.791712 H        1 UNL1     0.0623
     45 H         -3.886165   2.55941   0.405099 H        1 UNL1     0.2921
     46 H         3.561109   3.795887   -1.663653 H        1 UNL1     0.2922
     47 H         0.385744   0.289196   -2.23441 H        1 UNL1     0.2126
     48 H         -0.515014   -2.74797   0.540591 H        1 UNL1     0.2101
     49 H         3.12068   -0.269606   1.462514 H        1 UNL1     0.2100
     50 H         1.476614   -3.65219   2.073329 H        1 UNL1     0.2102
@<TRIPOS>BOND
     1     1     2    1
     2     1     6    1
     3     2     3    1
     4     3     4    1
     5     3    29    1
     6     3    33    1
     7     4     5    1
     8     5     6    1
     9     5     7    1
    10     5    35    1
    11     7     8    1
    12     8     9   ar
    13     8    13   ar
    14     9    10   ar
    15     9    36    1
    16    10    11   ar
    17    10    26    1
    18    11    12   ar
    19    11    14    1
    20    12    13   ar
    21    12    17    1
    22    13    37    1
    23    14    15    1
    24    14    25    2
    25    15    16    1
    26    15    38    1
    27    15    39    1
    28    16    17    1
    29    16    18    1
    30    16    40    1
    31    18    19   ar
    32    18    23   ar
    33    19    20   ar
    34    19    41    1
    35    20    21   ar
    36    20    42    1
    37    21    22   ar
    38    21    24    1
    39    22    23   ar
    40    22    43    1
    41    23    44    1
    42    24    45    1
    43    26    46    1
    44    27    47    1
    45    28    48    1
    46    29    49    1
    47    30    50    1
    48     1    31    1
    49     1    27    1
    50     2    32    1
    51     2    28    1
    52     4    34    1
    53     4    30    1
