@<TRIPOS>MOLECULE
*****
 50 53 0 0 0
SMALL
GASTEIGER

@<TRIPOS>ATOM
     1 C         -0.336951   -1.331166   1.698607 C.3        1 UNL1     0.1889
     2 C         -0.464924   -0.974739   0.19311 C.3        1 UNL1     0.1342
     3 C         -1.90513   -0.957735   -0.341664 C.3        1 UNL1     0.1174
     4 C         -2.794612   -2.016345   0.31506 C.3        1 UNL1     0.1456
     5 C         -2.644765   -2.045285   1.847075 C.3        1 UNL1     0.2326
     6 O         -1.280768   -2.267259   2.197941 O.3        1 UNL1     -0.3076
     7 O         -3.217768   -0.898297   2.50084 O.3        1 UNL1     -0.4605
     8 C         -3.729629   -1.115326   3.767499 C.ar        1 UNL1     0.1310
     9 C         -4.548998   -2.187186   4.137703 C.ar        1 UNL1     0.0226
     10 C         -5.003992   -2.32939   5.454009 C.ar        1 UNL1     0.1343
     11 C         -4.630768   -1.415284   6.438365 C.ar        1 UNL1     0.1007
     12 C         -3.846539   -0.31825   6.071918 C.ar        1 UNL1     0.1389
     13 C         -3.391349   -0.174046   4.747743 C.ar        1 UNL1     0.0229
     14 C         -5.01361   -1.563343   7.861623 C.2        1 UNL1     0.1740
     15 C         -4.343655   -0.618783   8.815832 C.3        1 UNL1     0.0520
     16 C         -4.270271   0.754469   8.162569 C.3        1 UNL1     0.1322
     17 O         -3.510248   0.698523   6.935253 O.3        1 UNL1     -0.4828
     18 C         -5.627715   1.450376   8.036943 C.ar        1 UNL1     -0.0067
     19 C         -6.002703   2.019256   6.80245 C.ar        1 UNL1     -0.0516
     20 C         -7.216169   2.704003   6.666135 C.ar        1 UNL1     -0.0198
     21 C         -8.05812   2.832825   7.75625 C.ar        1 UNL1     0.1169
     22 C         -7.731904   2.254726   8.976177 C.ar        1 UNL1     -0.0198
     23 C         -6.527005   1.554065   9.107887 C.ar        1 UNL1     -0.0516
     24 O         -9.213912   3.539025   7.595537 O.3        1 UNL1     -0.5068
     25 O         -5.765011   -2.444166   8.271542 O.2        1 UNL1     -0.2917
     26 O         -5.801211   -3.396474   5.749573 O.3        1 UNL1     -0.5058
     27 O         -0.229939   -0.194976   2.541465 O.3        1 UNL1     -0.3648
     28 O         0.264181   -1.953244   -0.570853 O.3        1 UNL1     -0.3841
     29 O         -2.459603   0.35701   -0.263328 O.3        1 UNL1     -0.3863
     30 O         -2.449504   -3.316834   -0.209648 O.3        1 UNL1     -0.3829
     31 H         0.622388   -1.846514   1.817621 H        1 UNL1     0.0937
     32 H         0.0   0.0   0.0 H        1 UNL1     0.0671
     33 H         -1.867481   -1.195092   -1.414028 H        1 UNL1     0.0649
     34 H         -3.844031   -1.835023   0.057683 H        1 UNL1     0.0683
     35 H         -3.201901   -2.940505   2.150487 H        1 UNL1     0.1085
     36 H         -4.828387   -2.96167   3.431844 H        1 UNL1     0.0691
     37 H         -2.782926   0.689523   4.487816 H        1 UNL1     0.0691
     38 H         -3.3425   -1.011749   9.022699 H        1 UNL1     0.0385
     39 H         -4.904969   -0.600473   9.756241 H        1 UNL1     0.0385
     40 H         -3.67466   1.396781   8.825293 H        1 UNL1     0.0789
     41 H         -5.355094   1.939795   5.934153 H        1 UNL1     0.0623
     42 H         -7.4886   3.148523   5.712093 H        1 UNL1     0.0654
     43 H         -8.390882   2.33664   9.832302 H        1 UNL1     0.0654
     44 H         -6.309039   1.106138   10.072614 H        1 UNL1     0.0623
     45 H         -8.985158   4.448657   7.344623 H        1 UNL1     0.2921
     46 H         -5.400158   -3.91078   6.467945 H        1 UNL1     0.2922
     47 H         0.512942   0.359043   2.263887 H        1 UNL1     0.2126
     48 H         1.197895   -1.88627   -0.292598 H        1 UNL1     0.2101
     49 H         -2.018796   0.939671   -0.902068 H        1 UNL1     0.2100
     50 H         -2.681735   -3.329324   -1.161292 H        1 UNL1     0.2102
@<TRIPOS>BOND
     1     1     2    1
     2     1     6    1
     3     2     3    1
     4     3     4    1
     5     3    29    1
     6     3    33    1
     7     4     5    1
     8     5     6    1
     9     5     7    1
    10     5    35    1
    11     7     8    1
    12     8     9   ar
    13     8    13   ar
    14     9    10   ar
    15     9    36    1
    16    10    11   ar
    17    10    26    1
    18    11    12   ar
    19    11    14    1
    20    12    13   ar
    21    12    17    1
    22    13    37    1
    23    14    15    1
    24    14    25    2
    25    15    16    1
    26    15    38    1
    27    15    39    1
    28    16    17    1
    29    16    18    1
    30    16    40    1
    31    18    19   ar
    32    18    23   ar
    33    19    20   ar
    34    19    41    1
    35    20    21   ar
    36    20    42    1
    37    21    22   ar
    38    21    24    1
    39    22    23   ar
    40    22    43    1
    41    23    44    1
    42    24    45    1
    43    26    46    1
    44    27    47    1
    45    28    48    1
    46    29    49    1
    47    30    50    1
    48     1    31    1
    49     1    27    1
    50     2    32    1
    51     2    28    1
    52     4    34    1
    53     4    30    1
