@<TRIPOS>MOLECULE
*****
 50 53 0 0 0
SMALL
GASTEIGER

@<TRIPOS>ATOM
     1 C         -0.370617   -1.397844   1.636911 C.3        1 UNL1     0.1889
     2 C         -0.487832   -0.971297   0.148873 C.3        1 UNL1     0.1342
     3 C         -1.926391   -0.89666   -0.385396 C.3        1 UNL1     0.1174
     4 C         -2.841364   -1.962615   0.22262 C.3        1 UNL1     0.1456
     5 C         -2.694689   -2.063796   1.751873 C.3        1 UNL1     0.2326
     6 O         -1.336802   -2.333104   2.09317 O.3        1 UNL1     -0.3076
     7 O         -3.241841   -0.934241   2.456181 O.3        1 UNL1     -0.4605
     8 C         -3.770887   -1.197922   3.706825 C.ar        1 UNL1     0.1310
     9 C         -4.614365   -2.269125   4.020468 C.ar        1 UNL1     0.0226
     10 C         -5.085644   -2.461413   5.324624 C.ar        1 UNL1     0.1343
     11 C         -4.705296   -1.599921   6.352733 C.ar        1 UNL1     0.1007
     12 C         -3.896509   -0.503057   6.043645 C.ar        1 UNL1     0.1389
     13 C         -3.424912   -0.308422   4.73172 C.ar        1 UNL1     0.0229
     14 C         -5.105664   -1.804271   7.764151 C.2        1 UNL1     0.1740
     15 C         -4.427759   -0.916802   8.766345 C.3        1 UNL1     0.0520
     16 C         -4.321398   0.482718   8.17644 C.3        1 UNL1     0.1322
     17 O         -3.549867   0.467138   6.955142 O.3        1 UNL1     -0.4828
     18 C         -5.663937   1.209947   8.069421 C.ar        1 UNL1     -0.0067
     19 C         -5.686309   2.57348   7.710964 C.ar        1 UNL1     -0.0516
     20 C         -6.893111   3.280511   7.650164 C.ar        1 UNL1     -0.0198
     21 C         -8.080889   2.638713   7.952 C.ar        1 UNL1     0.1169
     22 C         -8.094586   1.288217   8.275745 C.ar        1 UNL1     -0.0198
     23 C         -6.889829   0.576334   8.318653 C.ar        1 UNL1     -0.0516
     24 O         -9.232326   3.369125   7.918947 O.3        1 UNL1     -0.5068
     25 O         -5.877956   -2.687777   8.126734 O.2        1 UNL1     -0.2917
     26 O         -5.90611   -3.524924   5.564133 O.3        1 UNL1     -0.5058
     27 O         -0.238496   -0.30345   2.530014 O.3        1 UNL1     -0.3648
     28 O         0.219486   -1.931285   -0.657867 O.3        1 UNL1     -0.3841
     29 O         -2.450186   0.425838   -0.248389 O.3        1 UNL1     -0.3863
     30 O         -2.525829   -3.245944   -0.359783 O.3        1 UNL1     -0.3829
     31 H         0.576254   -1.940288   1.733188 H        1 UNL1     0.0937
     32 H         0.0   0.0   0.0 H        1 UNL1     0.0671
     33 H         -1.892567   -1.08645   -1.467318 H        1 UNL1     0.0649
     34 H         -3.885856   -1.745453   -0.026934 H        1 UNL1     0.0683
     35 H         -3.27303   -2.958474   2.014457 H        1 UNL1     0.1085
     36 H         -4.90113   -3.005508   3.277753 H        1 UNL1     0.0691
     37 H         -2.797453   0.553906   4.516829 H        1 UNL1     0.0691
     38 H         -3.43649   -1.338145   8.964794 H        1 UNL1     0.0385
     39 H         -4.998365   -0.929803   9.701234 H        1 UNL1     0.0385
     40 H         -3.720558   1.08285   8.873113 H        1 UNL1     0.0789
     41 H         -4.766581   3.102292   7.478351 H        1 UNL1     0.0623
     42 H         -6.896042   4.334641   7.384056 H        1 UNL1     0.0654
     43 H         -9.020629   0.772078   8.49925 H        1 UNL1     0.0654
     44 H         -6.938803   -0.479978   8.564929 H        1 UNL1     0.0623
     45 H         -9.189023   4.041728   8.617837 H        1 UNL1     0.2921
     46 H         -5.533576   -4.066674   6.277672 H        1 UNL1     0.2922
     47 H         0.50664   0.254866   2.267495 H        1 UNL1     0.2126
     48 H         1.171667   -1.779367   -0.502936 H        1 UNL1     0.2101
     49 H         -2.134582   0.98298   -0.977623 H        1 UNL1     0.2100
     50 H         -2.782996   -3.219645   -1.304709 H        1 UNL1     0.2102
@<TRIPOS>BOND
     1     1     2    1
     2     1     6    1
     3     2     3    1
     4     3     4    1
     5     3    29    1
     6     3    33    1
     7     4     5    1
     8     5     6    1
     9     5     7    1
    10     5    35    1
    11     7     8    1
    12     8     9   ar
    13     8    13   ar
    14     9    10   ar
    15     9    36    1
    16    10    11   ar
    17    10    26    1
    18    11    12   ar
    19    11    14    1
    20    12    13   ar
    21    12    17    1
    22    13    37    1
    23    14    15    1
    24    14    25    2
    25    15    16    1
    26    15    38    1
    27    15    39    1
    28    16    17    1
    29    16    18    1
    30    16    40    1
    31    18    19   ar
    32    18    23   ar
    33    19    20   ar
    34    19    41    1
    35    20    21   ar
    36    20    42    1
    37    21    22   ar
    38    21    24    1
    39    22    23   ar
    40    22    43    1
    41    23    44    1
    42    24    45    1
    43    26    46    1
    44    27    47    1
    45    28    48    1
    46    29    49    1
    47    30    50    1
    48     1    31    1
    49     1    27    1
    50     2    32    1
    51     2    28    1
    52     4    34    1
    53     4    30    1
