@<TRIPOS>MOLECULE
*****
 50 53 0 0 0
SMALL
GASTEIGER

@<TRIPOS>ATOM
     1 C         0.324558   -0.624444   2.067737 C.3        1 UNL1     0.1889
     2 C         0.019159   -0.932741   0.577225 C.3        1 UNL1     0.1342
     3 C         -1.290933   -1.698243   0.336122 C.3        1 UNL1     0.1174
     4 C         -1.605058   -2.702076   1.448219 C.3        1 UNL1     0.1456
     5 C         -1.424506   -2.101062   2.854117 C.3        1 UNL1     0.2326
     6 O         -0.095961   -1.605722   3.004034 O.3        1 UNL1     -0.3076
     7 O         -2.431792   -1.131946   3.196913 O.3        1 UNL1     -0.4605
     8 C         -2.766839   -1.05385   4.536754 C.ar        1 UNL1     0.1310
     9 C         -3.018504   -2.146004   5.37411 C.ar        1 UNL1     0.0226
     10 C         -3.334632   -1.963979   6.725713 C.ar        1 UNL1     0.1343
     11 C         -3.383445   -0.685138   7.278906 C.ar        1 UNL1     0.1007
     12 C         -3.174343   0.415255   6.443325 C.ar        1 UNL1     0.1389
     13 C         -2.859096   0.232084   5.08373 C.ar        1 UNL1     0.0229
     14 C         -3.629975   -0.439406   8.718695 C.2        1 UNL1     0.1740
     15 C         -3.426964   0.97386   9.180231 C.3        1 UNL1     0.0520
     16 C         -3.983595   1.912155   8.118288 C.3        1 UNL1     0.1322
     17 O         -3.304367   1.720483   6.85774 O.3        1 UNL1     -0.4828
     18 C         -5.511237   1.899141   8.024135 C.ar        1 UNL1     -0.0067
     19 C         -6.126214   1.768605   6.762003 C.ar        1 UNL1     -0.0516
     20 C         -7.520096   1.80056   6.635376 C.ar        1 UNL1     -0.0198
     21 C         -8.308026   1.969516   7.759853 C.ar        1 UNL1     0.1169
     22 C         -7.732999   2.067237   9.020264 C.ar        1 UNL1     -0.0198
     23 C         -6.339849   2.0168   9.149282 C.ar        1 UNL1     -0.0516
     24 O         -9.660244   2.033767   7.593189 O.3        1 UNL1     -0.5068
     25 O         -3.904454   -1.329535   9.519206 O.2        1 UNL1     -0.2917
     26 O         -3.570186   -3.070683   7.488147 O.3        1 UNL1     -0.5058
     27 O         -0.064306   0.680428   2.466336 O.3        1 UNL1     -0.3648
     28 O         1.089347   -1.738303   0.049519 O.3        1 UNL1     -0.3841
     29 O         -2.368457   -0.793293   0.086843 O.3        1 UNL1     -0.3863
     30 O         -0.731245   -3.844301   1.316071 O.3        1 UNL1     -0.3829
     31 H         1.415261   -0.623803   2.169938 H        1 UNL1     0.0937
     32 H         -0.0   0.0   0.0 H        1 UNL1     0.0671
     33 H         -1.175468   -2.276883   -0.591005 H        1 UNL1     0.0649
     34 H         -2.631595   -3.069721   1.341169 H        1 UNL1     0.0683
     35 H         -1.520806   -2.963903   3.525019 H        1 UNL1     0.1085
     36 H         -2.94134   -3.167388   5.017821 H        1 UNL1     0.0691
     37 H         -2.70186   1.105208   4.454108 H        1 UNL1     0.0691
     38 H         -2.351062   1.126224   9.317144 H        1 UNL1     0.0385
     39 H         -3.917677   1.108682   10.150181 H        1 UNL1     0.0385
     40 H         -3.719727   2.934948   8.419598 H        1 UNL1     0.0789
     41 H         -5.5295   1.644089   5.863072 H        1 UNL1     0.0623
     42 H         -7.981957   1.710788   5.655255 H        1 UNL1     0.0654
     43 H         -8.341256   2.184721   9.909156 H        1 UNL1     0.0654
     44 H         -5.925065   2.085625   10.150312 H        1 UNL1     0.0623
     45 H         -9.863113   2.791856   7.021471 H        1 UNL1     0.2921
     46 H         -2.966333   -3.074857   8.247592 H        1 UNL1     0.2922
     47 H         0.352329   1.342482   1.897162 H        1 UNL1     0.2126
     48 H         1.903633   -1.20411   0.122375 H        1 UNL1     0.2101
     49 H         -2.245321   -0.362699   -0.774098 H        1 UNL1     0.2100
     50 H         -0.954631   -4.299427   0.477816 H        1 UNL1     0.2102
@<TRIPOS>BOND
     1     1     2    1
     2     1     6    1
     3     2     3    1
     4     3     4    1
     5     3    29    1
     6     3    33    1
     7     4     5    1
     8     5     6    1
     9     5     7    1
    10     5    35    1
    11     7     8    1
    12     8     9   ar
    13     8    13   ar
    14     9    10   ar
    15     9    36    1
    16    10    11   ar
    17    10    26    1
    18    11    12   ar
    19    11    14    1
    20    12    13   ar
    21    12    17    1
    22    13    37    1
    23    14    15    1
    24    14    25    2
    25    15    16    1
    26    15    38    1
    27    15    39    1
    28    16    17    1
    29    16    18    1
    30    16    40    1
    31    18    19   ar
    32    18    23   ar
    33    19    20   ar
    34    19    41    1
    35    20    21   ar
    36    20    42    1
    37    21    22   ar
    38    21    24    1
    39    22    23   ar
    40    22    43    1
    41    23    44    1
    42    24    45    1
    43    26    46    1
    44    27    47    1
    45    28    48    1
    46    29    49    1
    47    30    50    1
    48     1    31    1
    49     1    27    1
    50     2    32    1
    51     2    28    1
    52     4    34    1
    53     4    30    1
