@<TRIPOS>MOLECULE
*****
 50 53 0 0 0
SMALL
GASTEIGER

@<TRIPOS>ATOM
     1 C         -0.295157   -1.364759   1.679619 C.3        1 UNL1     0.1889
     2 C         -0.454981   -0.981197   0.183866 C.3        1 UNL1     0.1342
     3 C         -1.905525   -0.963685   -0.32218 C.3        1 UNL1     0.1174
     4 C         -2.775316   -2.040158   0.331873 C.3        1 UNL1     0.1456
     5 C         -2.595129   -2.096648   1.859847 C.3        1 UNL1     0.2326
     6 O         -1.223133   -2.316165   2.179702 O.3        1 UNL1     -0.3076
     7 O         -3.16223   -0.965823   2.546106 O.3        1 UNL1     -0.4605
     8 C         -3.647674   -1.209764   3.818256 C.ar        1 UNL1     0.1310
     9 C         -4.452933   -2.293687   4.184273 C.ar        1 UNL1     0.0226
     10 C         -4.881006   -2.46337   5.50634 C.ar        1 UNL1     0.1343
     11 C         -4.494126   -1.565331   6.500166 C.ar        1 UNL1     0.1007
     12 C         -3.724081   -0.456539   6.139065 C.ar        1 UNL1     0.1389
     13 C         -3.295978   -0.284709   4.809166 C.ar        1 UNL1     0.0229
     14 C         -4.847919   -1.742386   7.927624 C.2        1 UNL1     0.1740
     15 C         -4.165152   -0.811389   8.886072 C.3        1 UNL1     0.0520
     16 C         -4.113164   0.574245   8.257366 C.3        1 UNL1     0.1322
     17 O         -3.377145   0.54616   7.014564 O.3        1 UNL1     -0.4828
     18 C         -5.477106   1.263449   8.171428 C.ar        1 UNL1     -0.0067
     19 C         -5.879867   1.852754   6.955403 C.ar        1 UNL1     -0.0516
     20 C         -7.100002   2.531945   6.85575 C.ar        1 UNL1     -0.0198
     21 C         -7.921088   2.63491   7.964372 C.ar        1 UNL1     0.1169
     22 C         -7.567318   2.036339   9.16662 C.ar        1 UNL1     -0.0198
     23 C         -6.35574   1.341267   9.261539 C.ar        1 UNL1     -0.0516
     24 O         -9.084174   3.336382   7.839604 O.3        1 UNL1     -0.5068
     25 O         -5.585624   -2.635604   8.335592 O.2        1 UNL1     -0.2917
     26 O         -5.66562   -3.540983   5.7974 O.3        1 UNL1     -0.5058
     27 O         -0.178595   -0.243791   2.541378 O.3        1 UNL1     -0.3648
     28 O         0.264974   -1.940495   -0.612449 O.3        1 UNL1     -0.3841
     29 O         -2.466479   0.345706   -0.208355 O.3        1 UNL1     -0.3863
     30 O         -2.432567   -3.328354   -0.223792 O.3        1 UNL1     -0.3829
     31 H         0.669515   -1.875929   1.770131 H        1 UNL1     0.0937
     32 H         0.0   0.0   0.0 H        1 UNL1     0.0671
     33 H         -1.887548   -1.180771   -1.399339 H        1 UNL1     0.0649
     34 H         -3.830707   -1.860963   0.098548 H        1 UNL1     0.0683
     35 H         -3.140621   -3.001002   2.157272 H        1 UNL1     0.1085
     36 H         -4.741375   -3.056705   3.469622 H        1 UNL1     0.0691
     37 H         -2.698157   0.587527   4.55361 H        1 UNL1     0.0691
     38 H         -3.1577   -1.201564   9.065882 H        1 UNL1     0.0385
     39 H         -4.707926   -0.814285   9.837474 H        1 UNL1     0.0385
     40 H         -3.508598   1.207994   8.920225 H        1 UNL1     0.0789
     41 H         -5.249017   1.793734   6.073249 H        1 UNL1     0.0623
     42 H         -7.393931   2.992364   5.915732 H        1 UNL1     0.0654
     43 H         -8.20979   2.097965   10.036874 H        1 UNL1     0.0654
     44 H         -6.116033   0.876886   10.21324 H        1 UNL1     0.0623
     45 H         -8.866049   4.252012   7.60136 H        1 UNL1     0.2921
     46 H         -5.246634   -4.066694   6.497036 H        1 UNL1     0.2922
     47 H         0.555225   0.320166   2.25974 H        1 UNL1     0.2126
     48 H         1.205171   -1.864638   -0.359453 H        1 UNL1     0.2101
     49 H         -2.041963   0.943045   -0.844568 H        1 UNL1     0.2100
     50 H         -2.683427   -3.324638   -1.17077 H        1 UNL1     0.2102
@<TRIPOS>BOND
     1     1     2    1
     2     1     6    1
     3     2     3    1
     4     3     4    1
     5     3    29    1
     6     3    33    1
     7     4     5    1
     8     5     6    1
     9     5     7    1
    10     5    35    1
    11     7     8    1
    12     8     9   ar
    13     8    13   ar
    14     9    10   ar
    15     9    36    1
    16    10    11   ar
    17    10    26    1
    18    11    12   ar
    19    11    14    1
    20    12    13   ar
    21    12    17    1
    22    13    37    1
    23    14    15    1
    24    14    25    2
    25    15    16    1
    26    15    38    1
    27    15    39    1
    28    16    17    1
    29    16    18    1
    30    16    40    1
    31    18    19   ar
    32    18    23   ar
    33    19    20   ar
    34    19    41    1
    35    20    21   ar
    36    20    42    1
    37    21    22   ar
    38    21    24    1
    39    22    23   ar
    40    22    43    1
    41    23    44    1
    42    24    45    1
    43    26    46    1
    44    27    47    1
    45    28    48    1
    46    29    49    1
    47    30    50    1
    48     1    31    1
    49     1    27    1
    50     2    32    1
    51     2    28    1
    52     4    34    1
    53     4    30    1
