@<TRIPOS>MOLECULE
*****
 50 53 0 0 0
SMALL
GASTEIGER

@<TRIPOS>ATOM
     1 C         -0.302671   -1.357999   1.683756 C.3        1 UNL1     0.1889
     2 C         -0.468654   -0.973789   0.18884 C.3        1 UNL1     0.1342
     3 C         -1.922809   -0.934348   -0.305469 C.3        1 UNL1     0.1174
     4 C         -2.803874   -1.996394   0.357027 C.3        1 UNL1     0.1456
     5 C         -2.612192   -2.053849   1.883566 C.3        1 UNL1     0.2326
     6 O         -1.241218   -2.294272   2.192593 O.3        1 UNL1     -0.3076
     7 O         -3.156078   -0.913529   2.572898 O.3        1 UNL1     -0.4605
     8 C         -3.645244   -1.150675   3.844907 C.ar        1 UNL1     0.1310
     9 C         -4.46599   -2.22303   4.2106 C.ar        1 UNL1     0.0226
     10 C         -4.896741   -2.386751   5.53255 C.ar        1 UNL1     0.1343
     11 C         -4.497291   -1.49446   6.526581 C.ar        1 UNL1     0.1007
     12 C         -3.711401   -0.396736   6.165799 C.ar        1 UNL1     0.1389
     13 C         -3.280589   -0.230868   4.836018 C.ar        1 UNL1     0.0229
     14 C         -4.853898   -1.666628   7.953937 C.2        1 UNL1     0.1740
     15 C         -4.158114   -0.745606   8.912661 C.3        1 UNL1     0.0520
     16 C         -4.086193   0.639226   8.284151 C.3        1 UNL1     0.1322
     17 O         -3.350372   0.60079   7.041509 O.3        1 UNL1     -0.4828
     18 C         -5.440129   1.347859   8.198001 C.ar        1 UNL1     -0.0067
     19 C         -5.572951   2.490843   7.383039 C.ar        1 UNL1     -0.0516
     20 C         -6.784   3.190239   7.318494 C.ar        1 UNL1     -0.0198
     21 C         -7.865015   2.762027   8.068073 C.ar        1 UNL1     0.1169
     22 C         -7.775055   1.620588   8.854116 C.ar        1 UNL1     -0.0198
     23 C         -6.56962   0.910351   8.904563 C.ar        1 UNL1     -0.0516
     24 O         -9.016757   3.490313   8.008986 O.3        1 UNL1     -0.5068
     25 O         -5.604382   -2.549267   8.361622 O.2        1 UNL1     -0.2917
     26 O         -5.696737   -3.453081   5.823292 O.3        1 UNL1     -0.5058
     27 O         -0.161729   -0.237946   2.543061 O.3        1 UNL1     -0.3648
     28 O         0.229834   -1.945109   -0.612007 O.3        1 UNL1     -0.3841
     29 O         -2.462424   0.383736   -0.188837 O.3        1 UNL1     -0.3863
     30 O         -2.485687   -3.290424   -0.19969 O.3        1 UNL1     -0.3829
     31 H         0.654651   -1.883986   1.767132 H        1 UNL1     0.0937
     32 H         0.0   0.0   0.0 H        1 UNL1     0.0671
     33 H         -1.916947   -1.152976   -1.38245 H        1 UNL1     0.0649
     34 H         -3.858214   -1.801103   0.132017 H        1 UNL1     0.0683
     35 H         -3.169227   -2.949262   2.186592 H        1 UNL1     0.1085
     36 H         -4.765144   -2.981755   3.495783 H        1 UNL1     0.0691
     37 H         -2.67031   0.63277   4.580712 H        1 UNL1     0.0691
     38 H         -3.15638   -1.150158   9.092643 H        1 UNL1     0.0385
     39 H         -4.701088   -0.740869   9.863942 H        1 UNL1     0.0385
     40 H         -3.472783   1.264187   8.947228 H        1 UNL1     0.0789
     41 H         -4.736502   2.852496   6.792099 H        1 UNL1     0.0623
     42 H         -6.870338   4.077076   6.695536 H        1 UNL1     0.0654
     43 H         -8.619917   1.267799   9.433476 H        1 UNL1     0.0654
     44 H         -6.538111   0.01704   9.520881 H        1 UNL1     0.0623
     45 H         -8.845988   4.365861   8.392353 H        1 UNL1     0.2921
     46 H         -5.296968   -3.971739   6.539246 H        1 UNL1     0.2922
     47 H         0.567102   0.323658   2.244285 H        1 UNL1     0.2126
     48 H         1.1808   -1.83498   -0.41896 H        1 UNL1     0.2101
     49 H         -2.040012   0.971649   -0.83515 H        1 UNL1     0.2100
     50 H         -2.770029   -3.293516   -1.137162 H        1 UNL1     0.2102
@<TRIPOS>BOND
     1     1     2    1
     2     1     6    1
     3     2     3    1
     4     3     4    1
     5     3    29    1
     6     3    33    1
     7     4     5    1
     8     5     6    1
     9     5     7    1
    10     5    35    1
    11     7     8    1
    12     8     9   ar
    13     8    13   ar
    14     9    10   ar
    15     9    36    1
    16    10    11   ar
    17    10    26    1
    18    11    12   ar
    19    11    14    1
    20    12    13   ar
    21    12    17    1
    22    13    37    1
    23    14    15    1
    24    14    25    2
    25    15    16    1
    26    15    38    1
    27    15    39    1
    28    16    17    1
    29    16    18    1
    30    16    40    1
    31    18    19   ar
    32    18    23   ar
    33    19    20   ar
    34    19    41    1
    35    20    21   ar
    36    20    42    1
    37    21    22   ar
    38    21    24    1
    39    22    23   ar
    40    22    43    1
    41    23    44    1
    42    24    45    1
    43    26    46    1
    44    27    47    1
    45    28    48    1
    46    29    49    1
    47    30    50    1
    48     1    31    1
    49     1    27    1
    50     2    32    1
    51     2    28    1
    52     4    34    1
    53     4    30    1
