@<TRIPOS>MOLECULE
*****
 50 53 0 0 0
SMALL
GASTEIGER

@<TRIPOS>ATOM
     1 C         1.397956   0.532582   1.591502 C.3        1 UNL1     0.1889
     2 C         -0.041231   0.350297   1.038823 C.3        1 UNL1     0.1342
     3 C         -0.919192   1.609173   1.108675 C.3        1 UNL1     0.1174
     4 C         -0.632282   2.464999   2.344945 C.3        1 UNL1     0.1456
     5 C         0.874419   2.680294   2.577028 C.3        1 UNL1     0.2326
     6 O         1.533494   1.421113   2.690837 O.3        1 UNL1     -0.3076
     7 O         1.484612   3.552889   1.608749 O.3        1 UNL1     -0.4605
     8 C         2.86278   3.655696   1.668847 C.ar        1 UNL1     0.1310
     9 C         3.689943   2.954119   2.552527 C.ar        1 UNL1     0.0226
     10 C         5.080407   3.114446   2.524094 C.ar        1 UNL1     0.1343
     11 C         5.679778   3.963157   1.594425 C.ar        1 UNL1     0.1007
     12 C         4.861491   4.700156   0.73418 C.ar        1 UNL1     0.1389
     13 C         3.463245   4.540764   0.764737 C.ar        1 UNL1     0.0229
     14 C         7.148346   4.106651   1.464525 C.2        1 UNL1     0.1740
     15 C         7.621723   4.884848   0.272102 C.3        1 UNL1     0.0520
     16 C         6.697204   6.078813   0.07801 C.3        1 UNL1     0.1322
     17 O         5.337951   5.643752   -0.146092 O.3        1 UNL1     -0.4828
     18 C         6.848982   7.15693   1.153811 C.ar        1 UNL1     -0.0067
     19 C         6.328126   6.926353   2.443678 C.ar        1 UNL1     -0.0516
     20 C         6.407936   7.909731   3.436935 C.ar        1 UNL1     -0.0198
     21 C         6.998284   9.127824   3.151337 C.ar        1 UNL1     0.1169
     22 C         7.550129   9.372238   1.90051 C.ar        1 UNL1     -0.0198
     23 C         7.48689   8.382207   0.912635 C.ar        1 UNL1     -0.0516
     24 O         7.023961   10.075133   4.132331 O.3        1 UNL1     -0.5068
     25 O         7.950072   3.567126   2.22257 O.2        1 UNL1     -0.2917
     26 O         5.830561   2.401865   3.413522 O.3        1 UNL1     -0.5058
     27 O         2.361465   0.795335   0.583832 O.3        1 UNL1     -0.3648
     28 O         -0.698845   -0.673817   1.807875 O.3        1 UNL1     -0.3841
     29 O         -0.838428   2.351913   -0.109498 O.3        1 UNL1     -0.3863
     30 O         -1.193514   1.819532   3.508594 O.3        1 UNL1     -0.3829
     31 H         1.698746   -0.435697   2.006279 H        1 UNL1     0.0937
     32 H         0.0   0.0   -0.0 H        1 UNL1     0.0671
     33 H         -1.9663   1.284028   1.183276 H        1 UNL1     0.0649
     34 H         -1.126105   3.438293   2.248831 H        1 UNL1     0.0683
     35 H         0.924576   3.156911   3.564044 H        1 UNL1     0.1085
     36 H         3.289483   2.237478   3.261173 H        1 UNL1     0.0691
     37 H         2.848283   5.126985   0.085281 H        1 UNL1     0.0691
     38 H         7.589606   4.215523   -0.594211 H        1 UNL1     0.0385
     39 H         8.662046   5.188334   0.431485 H        1 UNL1     0.0385
     40 H         6.988765   6.564349   -0.863142 H        1 UNL1     0.0789
     41 H         5.851752   5.981922   2.690194 H        1 UNL1     0.0623
     42 H         5.991967   7.724307   4.424153 H        1 UNL1     0.0654
     43 H         8.028113   10.31704   1.670749 H        1 UNL1     0.0654
     44 H         7.937685   8.603359   -0.050028 H        1 UNL1     0.0623
     45 H         7.660751   9.79715   4.810521 H        1 UNL1     0.2921
     46 H         6.772164   2.525804   3.214939 H        1 UNL1     0.2922
     47 H         2.339343   0.101265   -0.089694 H        1 UNL1     0.2126
     48 H         -1.072722   -0.234978   2.596145 H        1 UNL1     0.2101
     49 H         -1.224192   3.233608   0.015374 H        1 UNL1     0.2100
     50 H         -2.169518   1.858778   3.43383 H        1 UNL1     0.2102
@<TRIPOS>BOND
     1     1     2    1
     2     1     6    1
     3     2     3    1
     4     3     4    1
     5     3    29    1
     6     3    33    1
     7     4     5    1
     8     5     6    1
     9     5     7    1
    10     5    35    1
    11     7     8    1
    12     8     9   ar
    13     8    13   ar
    14     9    10   ar
    15     9    36    1
    16    10    11   ar
    17    10    26    1
    18    11    12   ar
    19    11    14    1
    20    12    13   ar
    21    12    17    1
    22    13    37    1
    23    14    15    1
    24    14    25    2
    25    15    16    1
    26    15    38    1
    27    15    39    1
    28    16    17    1
    29    16    18    1
    30    16    40    1
    31    18    19   ar
    32    18    23   ar
    33    19    20   ar
    34    19    41    1
    35    20    21   ar
    36    20    42    1
    37    21    22   ar
    38    21    24    1
    39    22    23   ar
    40    22    43    1
    41    23    44    1
    42    24    45    1
    43    26    46    1
    44    27    47    1
    45    28    48    1
    46    29    49    1
    47    30    50    1
    48     1    31    1
    49     1    27    1
    50     2    32    1
    51     2    28    1
    52     4    34    1
    53     4    30    1
