@<TRIPOS>MOLECULE
*****
 50 53 0 0 0
SMALL
GASTEIGER

@<TRIPOS>ATOM
     1 C         1.020354   -1.753501   -0.809269 C.3        1 UNL1     0.1889
     2 C         -0.234487   -0.853968   -0.647547 C.3        1 UNL1     0.1342
     3 C         -1.4739   -1.575391   -0.096303 C.3        1 UNL1     0.1174
     4 C         -1.577477   -3.026103   -0.573614 C.3        1 UNL1     0.1456
     5 C         -0.24406   -3.785425   -0.447941 C.3        1 UNL1     0.2326
     6 O         0.774351   -3.103081   -1.176029 O.3        1 UNL1     -0.3076
     7 O         0.12744   -4.070045   0.913051 O.3        1 UNL1     -0.4605
     8 C         0.838822   -5.239016   1.115458 C.ar        1 UNL1     0.1310
     9 C         0.526256   -6.484357   0.559825 C.ar        1 UNL1     0.0226
     10 C         1.320699   -7.609211   0.811751 C.ar        1 UNL1     0.1343
     11 C         2.461619   -7.510681   1.607008 C.ar        1 UNL1     0.1007
     12 C         2.761   -6.281564   2.200663 C.ar        1 UNL1     0.1389
     13 C         1.960549   -5.15128   1.949335 C.ar        1 UNL1     0.0229
     14 C         3.382935   -8.647353   1.837896 C.2        1 UNL1     0.1740
     15 C         4.670917   -8.309039   2.529411 C.3        1 UNL1     0.0520
     16 C         4.375331   -7.302867   3.633134 C.3        1 UNL1     0.1322
     17 O         3.797174   -6.097083   3.086426 O.3        1 UNL1     -0.4828
     18 C         3.606493   -7.894851   4.816843 C.ar        1 UNL1     -0.0067
     19 C         2.480006   -7.213279   5.32152 C.ar        1 UNL1     -0.0516
     20 C         1.782685   -7.702429   6.432573 C.ar        1 UNL1     -0.0198
     21 C         2.205298   -8.865544   7.050949 C.ar        1 UNL1     0.1169
     22 C         3.290897   -9.576992   6.55683 C.ar        1 UNL1     -0.0198
     23 C         3.977236   -9.097916   5.434564 C.ar        1 UNL1     -0.0516
     24 O         1.52424   -9.291103   8.153429 O.3        1 UNL1     -0.5068
     25 O         3.168074   -9.785552   1.429458 O.2        1 UNL1     -0.2917
     26 O         0.960561   -8.794751   0.240454 O.3        1 UNL1     -0.5058
     27 O         1.924794   -1.66333   0.280063 O.3        1 UNL1     -0.3648
     28 O         -0.586031   -0.324933   -1.939539 O.3        1 UNL1     -0.3841
     29 O         -1.540068   -1.454695   1.326084 O.3        1 UNL1     -0.3863
     30 O         -1.99154   -3.041211   -1.957092 O.3        1 UNL1     -0.3829
     31 H         1.58309   -1.355292   -1.660643 H        1 UNL1     0.0937
     32 H         0.0   0.0   0.0 H        1 UNL1     0.0671
     33 H         -2.362801   -1.051932   -0.475202 H        1 UNL1     0.0649
     34 H         -2.349289   -3.553597   -0.002249 H        1 UNL1     0.0683
     35 H         -0.428923   -4.732755   -0.969736 H        1 UNL1     0.1085
     36 H         -0.315365   -6.614086   -0.111715 H        1 UNL1     0.0691
     37 H         2.214412   -4.206133   2.424461 H        1 UNL1     0.0691
     38 H         5.347941   -7.88555   1.779862 H        1 UNL1     0.0385
     39 H         5.1223   -9.22855   2.917394 H        1 UNL1     0.0385
     40 H         5.341386   -6.98162   4.045515 H        1 UNL1     0.0789
     41 H         2.133773   -6.293334   4.859487 H        1 UNL1     0.0623
     42 H         0.922716   -7.161418   6.819577 H        1 UNL1     0.0654
     43 H         3.621188   -10.496943   7.024278 H        1 UNL1     0.0654
     44 H         4.81438   -9.684833   5.069099 H        1 UNL1     0.0623
     45 H         1.608832   -8.615711   8.845821 H        1 UNL1     0.2921
     46 H         1.698308   -9.135826   -0.289461 H        1 UNL1     0.2922
     47 H         2.174053   -0.741163   0.432832 H        1 UNL1     0.2126
     48 H         0.156537   0.243804   -2.220369 H        1 UNL1     0.2101
     49 H         -1.745406   -0.53819   1.570316 H        1 UNL1     0.2100
     50 H         -2.903767   -2.686985   -2.002677 H        1 UNL1     0.2102
@<TRIPOS>BOND
     1     1     2    1
     2     1     6    1
     3     2     3    1
     4     3     4    1
     5     3    29    1
     6     3    33    1
     7     4     5    1
     8     5     6    1
     9     5     7    1
    10     5    35    1
    11     7     8    1
    12     8     9   ar
    13     8    13   ar
    14     9    10   ar
    15     9    36    1
    16    10    11   ar
    17    10    26    1
    18    11    12   ar
    19    11    14    1
    20    12    13   ar
    21    12    17    1
    22    13    37    1
    23    14    15    1
    24    14    25    2
    25    15    16    1
    26    15    38    1
    27    15    39    1
    28    16    17    1
    29    16    18    1
    30    16    40    1
    31    18    19   ar
    32    18    23   ar
    33    19    20   ar
    34    19    41    1
    35    20    21   ar
    36    20    42    1
    37    21    22   ar
    38    21    24    1
    39    22    23   ar
    40    22    43    1
    41    23    44    1
    42    24    45    1
    43    26    46    1
    44    27    47    1
    45    28    48    1
    46    29    49    1
    47    30    50    1
    48     1    31    1
    49     1    27    1
    50     2    32    1
    51     2    28    1
    52     4    34    1
    53     4    30    1
