@<TRIPOS>MOLECULE
*****
 50 53 0 0 0
SMALL
GASTEIGER

@<TRIPOS>ATOM
     1 C         0.496592   0.019846   -2.126924 C.3        1 UNL1     0.1889
     2 C         -0.281752   0.56298   -0.89846 C.3        1 UNL1     0.1342
     3 C         -1.810825   0.538552   -1.04613 C.3        1 UNL1     0.1174
     4 C         -2.273113   0.81246   -2.479441 C.3        1 UNL1     0.1456
     5 C         -1.482335   -0.000988   -3.520276 C.3        1 UNL1     0.2326
     6 O         -0.088881   0.273901   -3.395416 O.3        1 UNL1     -0.3076
     7 O         -1.7857   -1.407704   -3.499259 O.3        1 UNL1     -0.4605
     8 C         -1.812134   -2.00357   -2.251151 C.ar        1 UNL1     0.1310
     9 C         -1.87105   -1.323835   -1.029763 C.ar        1 UNL1     0.0226
     10 C         -1.911223   -2.019504   0.184458 C.ar        1 UNL1     0.1343
     11 C         -1.917491   -3.413544   0.205762 C.ar        1 UNL1     0.1007
     12 C         -1.817515   -4.103063   -1.005581 C.ar        1 UNL1     0.1389
     13 C         -1.774464   -3.403313   -2.226207 C.ar        1 UNL1     0.0229
     14 C         -2.043277   -4.19929   1.455136 C.2        1 UNL1     0.1740
     15 C         -2.257689   -5.673582   1.276135 C.3        1 UNL1     0.0520
     16 C         -1.373283   -6.153858   0.133716 C.3        1 UNL1     0.1322
     17 O         -1.707066   -5.471299   -1.095012 O.3        1 UNL1     -0.4828
     18 C         0.119724   -6.15961   0.47079 C.ar        1 UNL1     -0.0067
     19 C         0.61214   -7.080032   1.418716 C.ar        1 UNL1     -0.0516
     20 C         1.963395   -7.080447   1.784876 C.ar        1 UNL1     -0.0198
     21 C         2.828949   -6.162717   1.217059 C.ar        1 UNL1     0.1169
     22 C         2.38067   -5.265878   0.256036 C.ar        1 UNL1     -0.0198
     23 C         1.033239   -5.277438   -0.123901 C.ar        1 UNL1     -0.0516
     24 O         4.130098   -6.168175   1.626182 O.3        1 UNL1     -0.5068
     25 O         -2.055806   -3.692839   2.57399 O.2        1 UNL1     -0.2917
     26 O         -1.966878   -1.297138   1.340605 O.3        1 UNL1     -0.5058
     27 O         0.888295   -1.337164   -1.993203 O.3        1 UNL1     -0.3648
     28 O         0.105886   1.932496   -0.681964 O.3        1 UNL1     -0.3841
     29 O         -2.352609   -0.670882   -0.51146 O.3        1 UNL1     -0.3863
     30 O         -2.111619   2.218114   -2.768834 O.3        1 UNL1     -0.3829
     31 H         1.442551   0.570911   -2.166526 H        1 UNL1     0.0937
     32 H         0.0   0.0   0.0 H        1 UNL1     0.0671
     33 H         -2.221046   1.343608   -0.420572 H        1 UNL1     0.0649
     34 H         -3.34043   0.585468   -2.577977 H        1 UNL1     0.0683
     35 H         -1.804757   0.416151   -4.482522 H        1 UNL1     0.1085
     36 H         -1.925376   -0.241785   -0.981424 H        1 UNL1     0.0691
     37 H         -1.695618   -3.963483   -3.155446 H        1 UNL1     0.0691
     38 H         -3.317447   -5.828745   1.047302 H        1 UNL1     0.0385
     39 H         -2.032482   -6.185971   2.217685 H        1 UNL1     0.0385
     40 H         -1.632268   -7.204203   -0.056601 H        1 UNL1     0.0789
     41 H         -0.04884   -7.804447   1.885597 H        1 UNL1     0.0623
     42 H         2.328564   -7.787356   2.525783 H        1 UNL1     0.0654
     43 H         3.053028   -4.552907   -0.206044 H        1 UNL1     0.0654
     44 H         0.719742   -4.569787   -0.885344 H        1 UNL1     0.0623
     45 H         4.343776   -7.055561   1.957247 H        1 UNL1     0.2921
     46 H         -1.077785   -1.230013   1.723254 H        1 UNL1     0.2922
     47 H         0.151117   -1.867069   -1.659093 H        1 UNL1     0.2126
     48 H         0.696368   2.176159   -1.420674 H        1 UNL1     0.2101
     49 H         -1.96593   -1.435486   -0.967149 H        1 UNL1     0.2100
     50 H         -1.763236   2.653671   -1.963457 H        1 UNL1     0.2102
@<TRIPOS>BOND
     1     1     2    1
     2     1     6    1
     3     2     3    1
     4     3     4    1
     5     3    29    1
     6     3    33    1
     7     4     5    1
     8     5     6    1
     9     5     7    1
    10     5    35    1
    11     7     8    1
    12     8     9   ar
    13     8    13   ar
    14     9    10   ar
    15     9    36    1
    16    10    11   ar
    17    10    26    1
    18    11    12   ar
    19    11    14    1
    20    12    13   ar
    21    12    17    1
    22    13    37    1
    23    14    15    1
    24    14    25    2
    25    15    16    1
    26    15    38    1
    27    15    39    1
    28    16    17    1
    29    16    18    1
    30    16    40    1
    31    18    19   ar
    32    18    23   ar
    33    19    20   ar
    34    19    41    1
    35    20    21   ar
    36    20    42    1
    37    21    22   ar
    38    21    24    1
    39    22    23   ar
    40    22    43    1
    41    23    44    1
    42    24    45    1
    43    26    46    1
    44    27    47    1
    45    28    48    1
    46    29    49    1
    47    30    50    1
    48     1    31    1
    49     1    27    1
    50     2    32    1
    51     2    28    1
    52     4    34    1
    53     4    30    1
