@<TRIPOS>MOLECULE
*****
 50 53 0 0 0
SMALL
GASTEIGER

@<TRIPOS>ATOM
     1 C         -0.340791   -1.334141   1.695504 C.3        1 UNL1     0.1889
     2 C         -0.466568   -0.974448   0.190598 C.3        1 UNL1     0.1342
     3 C         -1.906153   -0.954234   -0.345735 C.3        1 UNL1     0.1174
     4 C         -2.797916   -2.012876   0.307834 C.3        1 UNL1     0.1456
     5 C         -2.649814   -2.04517   1.839952 C.3        1 UNL1     0.2326
     6 O         -1.286535   -2.269866   2.191874 O.3        1 UNL1     -0.3076
     7 O         -3.221859   -0.898681   2.495429 O.3        1 UNL1     -0.4605
     8 C         -3.742238   -1.119187   3.75801 C.ar        1 UNL1     0.1310
     9 C         -4.56836   -2.189182   4.118473 C.ar        1 UNL1     0.0226
     10 C         -5.031853   -2.335329   5.431377 C.ar        1 UNL1     0.1343
     11 C         -4.660673   -1.42724   6.422054 C.ar        1 UNL1     0.1007
     12 C         -3.869605   -0.331938   6.065251 C.ar        1 UNL1     0.1389
     13 C         -3.40586   -0.183757   4.744488 C.ar        1 UNL1     0.0229
     14 C         -5.052683   -1.580029   7.842314 C.2        1 UNL1     0.1740
     15 C         -4.384469   -0.642618   8.804758 C.3        1 UNL1     0.0520
     16 C         -4.301332   0.733216   8.158133 C.3        1 UNL1     0.1322
     17 O         -3.534194   0.679516   6.935151 O.3        1 UNL1     -0.4828
     18 C         -5.65503   1.435472   8.027513 C.ar        1 UNL1     -0.0067
     19 C         -6.020176   2.011467   6.793368 C.ar        1 UNL1     -0.0516
     20 C         -7.229883   2.701996   6.652871 C.ar        1 UNL1     -0.0198
     21 C         -8.077814   2.829534   7.738493 C.ar        1 UNL1     0.1169
     22 C         -7.76139   2.244594   8.957738 C.ar        1 UNL1     -0.0198
     23 C         -6.560289   1.538209   9.093508 C.ar        1 UNL1     -0.0516
     24 O         -9.22961   3.541378   7.574041 O.3        1 UNL1     -0.5068
     25 O         -5.810266   -2.459458   8.243757 O.2        1 UNL1     -0.2917
     26 O         -5.835357   -3.400309   5.717357 O.3        1 UNL1     -0.5058
     27 O         -0.233048   -0.199837   2.540804 O.3        1 UNL1     -0.3648
     28 O         0.261949   -1.952458   -0.574557 O.3        1 UNL1     -0.3841
     29 O         -2.458783   0.361162   -0.265322 O.3        1 UNL1     -0.3863
     30 O         -2.454134   -3.312795   -0.219153 O.3        1 UNL1     -0.3829
     31 H         0.617658   -1.851141   1.814525 H        1 UNL1     0.0937
     32 H         0.0   0.0   0.0 H        1 UNL1     0.0671
     33 H         -1.867661   -1.189451   -1.418541 H        1 UNL1     0.0649
     34 H         -3.846781   -1.829486   0.049666 H        1 UNL1     0.0683
     35 H         -3.2086   -2.94019   2.140912 H        1 UNL1     0.1085
     36 H         -4.846788   -2.959299   3.407475 H        1 UNL1     0.0691
     37 H         -2.792226   0.67836   4.492098 H        1 UNL1     0.0691
     38 H         -3.386253   -1.040781   9.015847 H        1 UNL1     0.0385
     39 H         -4.951341   -0.626118   9.741862 H        1 UNL1     0.0385
     40 H         -3.706992   1.370006   8.827296 H        1 UNL1     0.0789
     41 H         -5.367705   1.933126   5.928616 H        1 UNL1     0.0623
     42 H         -7.494687   3.15194   5.699225 H        1 UNL1     0.0654
     43 H         -8.425146   2.325492   9.810261 H        1 UNL1     0.0654
     44 H         -6.350027   1.085043   10.057497 H        1 UNL1     0.0623
     45 H         -8.995439   4.451857   7.331329 H        1 UNL1     0.2921
     46 H         -5.440814   -3.919533   6.435796 H        1 UNL1     0.2922
     47 H         0.506712   0.357209   2.260958 H        1 UNL1     0.2126
     48 H         1.197739   -1.877677   -0.305414 H        1 UNL1     0.2101
     49 H         -2.022134   0.94243   -0.908175 H        1 UNL1     0.2100
     50 H         -2.690554   -3.324909   -1.169769 H        1 UNL1     0.2102
@<TRIPOS>BOND
     1     1     2    1
     2     1     6    1
     3     2     3    1
     4     3     4    1
     5     3    29    1
     6     3    33    1
     7     4     5    1
     8     5     6    1
     9     5     7    1
    10     5    35    1
    11     7     8    1
    12     8     9   ar
    13     8    13   ar
    14     9    10   ar
    15     9    36    1
    16    10    11   ar
    17    10    26    1
    18    11    12   ar
    19    11    14    1
    20    12    13   ar
    21    12    17    1
    22    13    37    1
    23    14    15    1
    24    14    25    2
    25    15    16    1
    26    15    38    1
    27    15    39    1
    28    16    17    1
    29    16    18    1
    30    16    40    1
    31    18    19   ar
    32    18    23   ar
    33    19    20   ar
    34    19    41    1
    35    20    21   ar
    36    20    42    1
    37    21    22   ar
    38    21    24    1
    39    22    23   ar
    40    22    43    1
    41    23    44    1
    42    24    45    1
    43    26    46    1
    44    27    47    1
    45    28    48    1
    46    29    49    1
    47    30    50    1
    48     1    31    1
    49     1    27    1
    50     2    32    1
    51     2    28    1
    52     4    34    1
    53     4    30    1
