@<TRIPOS>MOLECULE
*****
 50 53 0 0 0
SMALL
GASTEIGER

@<TRIPOS>ATOM
     1 C         -0.349941   -1.33623   1.691991 C.3        1 UNL1     0.1889
     2 C         -0.472011   -0.972371   0.187782 C.3        1 UNL1     0.1342
     3 C         -1.910832   -0.943188   -0.350184 C.3        1 UNL1     0.1174
     4 C         -2.80903   -1.998547   0.299874 C.3        1 UNL1     0.1456
     5 C         -2.662913   -2.035196   1.832085 C.3        1 UNL1     0.2326
     6 O         -1.301274   -2.268019   2.185074 O.3        1 UNL1     -0.3076
     7 O         -3.229575   -0.887181   2.489562 O.3        1 UNL1     -0.4605
     8 C         -3.745396   -1.10613   3.754283 C.ar        1 UNL1     0.1310
     9 C         -4.572616   -2.174059   4.11834 C.ar        1 UNL1     0.0226
     10 C         -5.031172   -2.318773   5.433135 C.ar        1 UNL1     0.1343
     11 C         -4.653841   -1.41133   6.422078 C.ar        1 UNL1     0.1007
     12 C         -3.8616   -0.31801   6.061815 C.ar        1 UNL1     0.1389
     13 C         -3.402819   -0.171264   4.73916 C.ar        1 UNL1     0.0229
     14 C         -5.040499   -1.56283   7.843942 C.2        1 UNL1     0.1740
     15 C         -4.366181   -0.626782   8.803451 C.3        1 UNL1     0.0520
     16 C         -4.282358   0.748691   8.156144 C.3        1 UNL1     0.1322
     17 O         -3.520277   0.692855   6.9301 O.3        1 UNL1     -0.4828
     18 C         -5.63489   1.454148   8.030789 C.ar        1 UNL1     -0.0067
     19 C         -6.004819   2.028271   6.797197 C.ar        1 UNL1     -0.0516
     20 C         -7.213442   2.721607   6.661261 C.ar        1 UNL1     -0.0198
     21 C         -8.055512   2.853813   7.750879 C.ar        1 UNL1     0.1169
     22 C         -7.734402   2.270836   8.96984 C.ar        1 UNL1     -0.0198
     23 C         -6.534451   1.561657   9.101128 C.ar        1 UNL1     -0.0516
     24 O         -9.206291   3.568259   7.590646 O.3        1 UNL1     -0.5068
     25 O         -5.79856   -2.440347   8.248655 O.2        1 UNL1     -0.2917
     26 O         -5.836061   -3.381759   5.722618 O.3        1 UNL1     -0.5058
     27 O         -0.237116   -0.204488   2.540058 O.3        1 UNL1     -0.3648
     28 O         0.252155   -1.952495   -0.578799 O.3        1 UNL1     -0.3841
     29 O         -2.456496   0.374963   -0.267351 O.3        1 UNL1     -0.3863
     30 O         -2.471601   -3.299063   -0.229739 O.3        1 UNL1     -0.3829
     31 H         0.605581   -1.85864   1.810927 H        1 UNL1     0.0937
     32 H         0.0   0.0   0.0 H        1 UNL1     0.0671
     33 H         -1.872336   -1.176114   -1.423489 H        1 UNL1     0.0649
     34 H         -3.856592   -1.808934   0.040909 H        1 UNL1     0.0683
     35 H         -3.226844   -2.927902   2.130306 H        1 UNL1     0.1085
     36 H         -4.855741   -2.943684   3.408666 H        1 UNL1     0.0691
     37 H         -2.788147   0.689322   4.484083 H        1 UNL1     0.0691
     38 H         -3.368078   -1.027277   9.010625 H        1 UNL1     0.0385
     39 H         -4.929237   -0.608696   9.742823 H        1 UNL1     0.0385
     40 H         -3.683812   1.384223   8.822747 H        1 UNL1     0.0789
     41 H         -5.356957   1.946271   5.929325 H        1 UNL1     0.0623
     42 H         -7.48193   3.17006   5.707943 H        1 UNL1     0.0654
     43 H         -8.393605   2.355394   9.825534 H        1 UNL1     0.0654
     44 H         -6.320459   1.110146   10.065074 H        1 UNL1     0.0623
     45 H         -8.971236   4.475377   7.336476 H        1 UNL1     0.2921
     46 H         -5.439186   -3.902524   6.438653 H        1 UNL1     0.2922
     47 H         0.511842   0.344207   2.268294 H        1 UNL1     0.2126
     48 H         1.184667   -1.897042   -0.294058 H        1 UNL1     0.2101
     49 H         -2.010132   0.95742   -0.902409 H        1 UNL1     0.2100
     50 H         -2.70172   -3.305812   -1.181953 H        1 UNL1     0.2102
@<TRIPOS>BOND
     1     1     2    1
     2     1     6    1
     3     2     3    1
     4     3     4    1
     5     3    29    1
     6     3    33    1
     7     4     5    1
     8     5     6    1
     9     5     7    1
    10     5    35    1
    11     7     8    1
    12     8     9   ar
    13     8    13   ar
    14     9    10   ar
    15     9    36    1
    16    10    11   ar
    17    10    26    1
    18    11    12   ar
    19    11    14    1
    20    12    13   ar
    21    12    17    1
    22    13    37    1
    23    14    15    1
    24    14    25    2
    25    15    16    1
    26    15    38    1
    27    15    39    1
    28    16    17    1
    29    16    18    1
    30    16    40    1
    31    18    19   ar
    32    18    23   ar
    33    19    20   ar
    34    19    41    1
    35    20    21   ar
    36    20    42    1
    37    21    22   ar
    38    21    24    1
    39    22    23   ar
    40    22    43    1
    41    23    44    1
    42    24    45    1
    43    26    46    1
    44    27    47    1
    45    28    48    1
    46    29    49    1
    47    30    50    1
    48     1    31    1
    49     1    27    1
    50     2    32    1
    51     2    28    1
    52     4    34    1
    53     4    30    1
