@<TRIPOS>MOLECULE
*****
 50 53 0 0 0
SMALL
GASTEIGER

@<TRIPOS>ATOM
     1 C         -0.390407   -1.381259   1.646363 C.3        1 UNL1     0.1889
     2 C         -0.492261   -0.968362   0.153352 C.3        1 UNL1     0.1342
     3 C         -1.925482   -0.894361   -0.395161 C.3        1 UNL1     0.1174
     4 C         -2.849484   -1.951756   0.214145 C.3        1 UNL1     0.1456
     5 C         -2.717538   -2.039006   1.745595 C.3        1 UNL1     0.2326
     6 O         -1.363778   -2.309236   2.102216 O.3        1 UNL1     -0.3076
     7 O         -3.267751   -0.901216   2.434088 O.3        1 UNL1     -0.4605
     8 C         -3.809379   -1.151515   3.682093 C.ar        1 UNL1     0.1310
     9 C         -4.893563   -1.997244   3.940137 C.ar        1 UNL1     0.0226
     10 C         -5.359194   -2.19948   5.244817 C.ar        1 UNL1     0.1343
     11 C         -4.736197   -1.57881   6.326706 C.ar        1 UNL1     0.1007
     12 C         -3.67864   -0.700006   6.077587 C.ar        1 UNL1     0.1389
     13 C         -3.212324   -0.494771   4.765391 C.ar        1 UNL1     0.0229
     14 C         -5.133332   -1.822237   7.732829 C.2        1 UNL1     0.1740
     15 C         -4.217245   -1.25027   8.774553 C.3        1 UNL1     0.0520
     16 C         -3.766785   0.129478   8.314837 C.3        1 UNL1     0.1322
     17 O         -3.063278   0.046129   7.055789 O.3        1 UNL1     -0.4828
     18 C         -4.875309   1.184183   8.353498 C.ar        1 UNL1     -0.0067
     19 C         -5.472309   1.516524   9.58693 C.ar        1 UNL1     -0.0516
     20 C         -6.520825   2.441965   9.651244 C.ar        1 UNL1     -0.0198
     21 C         -6.985262   3.035137   8.490954 C.ar        1 UNL1     0.1169
     22 C         -6.395431   2.753388   7.265574 C.ar        1 UNL1     -0.0198
     23 C         -5.334646   1.84184   7.203328 C.ar        1 UNL1     -0.0516
     24 O         -8.033024   3.903002   8.587925 O.3        1 UNL1     -0.5068
     25 O         -6.098327   -2.511143   8.053263 O.2        1 UNL1     -0.2917
     26 O         -6.421401   -3.035855   5.428605 O.3        1 UNL1     -0.5058
     27 O         -0.263268   -0.278926   2.53038 O.3        1 UNL1     -0.3648
     28 O         0.219607   -1.938044   -0.637639 O.3        1 UNL1     -0.3841
     29 O         -2.446388   0.430959   -0.275508 O.3        1 UNL1     -0.3863
     30 O         -2.532508   -3.241459   -0.353201 O.3        1 UNL1     -0.3829
     31 H         0.553807   -1.925661   1.75666 H        1 UNL1     0.0937
     32 H         0.0   0.0   0.0 H        1 UNL1     0.0671
     33 H         -1.882065   -1.094413   -1.47489 H        1 UNL1     0.0649
     34 H         -3.890892   -1.733763   -0.047291 H        1 UNL1     0.0683
     35 H         -3.301134   -2.929407   2.011075 H        1 UNL1     0.1085
     36 H         -5.384989   -2.552083   3.148446 H        1 UNL1     0.0691
     37 H         -2.388146   0.195292   4.597949 H        1 UNL1     0.0691
     38 H         -3.36496   -1.930648   8.875663 H        1 UNL1     0.0385
     39 H         -4.742995   -1.215548   9.734844 H        1 UNL1     0.0385
     40 H         -3.009321   0.477671   9.030051 H        1 UNL1     0.0789
     41 H         -5.131942   1.057894   10.510758 H        1 UNL1     0.0623
     42 H         -6.980872   2.680977   10.606881 H        1 UNL1     0.0654
     43 H         -6.741332   3.2235   6.352745 H        1 UNL1     0.0654
     44 H         -4.890486   1.653332   6.230687 H        1 UNL1     0.0623
     45 H         -8.492854   3.736149   9.426634 H        1 UNL1     0.2921
     46 H         -6.244653   -3.622821   6.180698 H        1 UNL1     0.2922
     47 H         -1.137208   0.041274   2.794124 H        1 UNL1     0.2126
     48 H         -0.329976   -2.114104   -1.425479 H        1 UNL1     0.2101
     49 H         -3.002156   0.496777   0.517325 H        1 UNL1     0.2100
     50 H         -1.582348   -3.240617   -0.591753 H        1 UNL1     0.2102
@<TRIPOS>BOND
     1     1     2    1
     2     1     6    1
     3     2     3    1
     4     3     4    1
     5     3    29    1
     6     3    33    1
     7     4     5    1
     8     5     6    1
     9     5     7    1
    10     5    35    1
    11     7     8    1
    12     8     9   ar
    13     8    13   ar
    14     9    10   ar
    15     9    36    1
    16    10    11   ar
    17    10    26    1
    18    11    12   ar
    19    11    14    1
    20    12    13   ar
    21    12    17    1
    22    13    37    1
    23    14    15    1
    24    14    25    2
    25    15    16    1
    26    15    38    1
    27    15    39    1
    28    16    17    1
    29    16    18    1
    30    16    40    1
    31    18    19   ar
    32    18    23   ar
    33    19    20   ar
    34    19    41    1
    35    20    21   ar
    36    20    42    1
    37    21    22   ar
    38    21    24    1
    39    22    23   ar
    40    22    43    1
    41    23    44    1
    42    24    45    1
    43    26    46    1
    44    27    47    1
    45    28    48    1
    46    29    49    1
    47    30    50    1
    48     1    31    1
    49     1    27    1
    50     2    32    1
    51     2    28    1
    52     4    34    1
    53     4    30    1
