@<TRIPOS>MOLECULE
*****
 50 53 0 0 0
SMALL
GASTEIGER

@<TRIPOS>ATOM
     1 C         -0.297036   1.081571   1.874241 C.3        1 UNL1     0.1889
     2 C         0.131337   -0.17814   1.074513 C.3        1 UNL1     0.1342
     3 C         -0.609368   -1.466896   1.46301 C.3        1 UNL1     0.1174
     4 C         -0.941554   -1.533513   2.95577 C.3        1 UNL1     0.1456
     5 C         -1.549225   -0.221369   3.48433 C.3        1 UNL1     0.2326
     6 O         -0.65974   0.863458   3.229699 O.3        1 UNL1     -0.3076
     7 O         -2.887243   0.021395   3.013061 O.3        1 UNL1     -0.4605
     8 C         -3.736875   -1.070234   3.011682 C.ar        1 UNL1     0.1310
     9 C         -5.061299   -1.066843   3.462446 C.ar        1 UNL1     0.0226
     10 C         -5.848727   -2.22288   3.403797 C.ar        1 UNL1     0.1343
     11 C         -5.337755   -3.405351   2.870403 C.ar        1 UNL1     0.1007
     12 C         -4.003782   -3.43205   2.454969 C.ar        1 UNL1     0.1389
     13 C         -3.211422   -2.270235   2.516489 C.ar        1 UNL1     0.0229
     14 C         -6.150959   -4.632627   2.707162 C.2        1 UNL1     0.1740
     15 C         -5.511128   -5.734892   1.915217 C.3        1 UNL1     0.0520
     16 C         -4.04056   -5.814512   2.301282 C.3        1 UNL1     0.1322
     17 O         -3.366972   -4.569061   2.014575 O.3        1 UNL1     -0.4828
     18 C         -3.802669   -6.353829   3.713822 C.ar        1 UNL1     -0.0067
     19 C         -4.676657   -7.327369   4.239729 C.ar        1 UNL1     -0.0516
     20 C         -4.515744   -7.807054   5.545091 C.ar        1 UNL1     -0.0198
     21 C         -3.491521   -7.316895   6.33537 C.ar        1 UNL1     0.1169
     22 C         -2.594521   -6.382481   5.834273 C.ar        1 UNL1     -0.0198
     23 C         -2.74407   -5.916206   4.522678 C.ar        1 UNL1     -0.0516
     24 O         -3.388916   -7.779781   7.61428 O.3        1 UNL1     -0.5068
     25 O         -7.305353   -4.737749   3.113128 O.2        1 UNL1     -0.2917
     26 O         -7.132457   -2.153227   3.860712 O.3        1 UNL1     -0.5058
     27 O         -1.253726   1.882025   1.198368 O.3        1 UNL1     -0.3648
     28 O         1.534856   -0.406131   1.300039 O.3        1 UNL1     -0.3841
     29 O         -1.755029   -1.663483   0.631778 O.3        1 UNL1     -0.3863
     30 O         0.264625   -1.818142   3.697261 O.3        1 UNL1     -0.3829
     31 H         0.588418   1.722578   1.946077 H        1 UNL1     0.0937
     32 H         0.0   0.0   0.0 H        1 UNL1     0.0671
     33 H         0.056365   -2.314278   1.247456 H        1 UNL1     0.0649
     34 H         -1.637703   -2.35752   3.147577 H        1 UNL1     0.0683
     35 H         -1.577338   -0.362195   4.572106 H        1 UNL1     0.1085
     36 H         -5.534176   -0.165214   3.83604 H        1 UNL1     0.0691
     37 H         -2.175452   -2.317552   2.187827 H        1 UNL1     0.0691
     38 H         -5.628201   -5.491155   0.853891 H        1 UNL1     0.0385
     39 H         -6.042068   -6.672653   2.111396 H        1 UNL1     0.0385
     40 H         -3.568297   -6.543237   1.628639 H        1 UNL1     0.0789
     41 H         -5.493947   -7.721345   3.642676 H        1 UNL1     0.0623
     42 H         -5.203417   -8.549069   5.943251 H        1 UNL1     0.0654
     43 H         -1.779847   -6.003023   6.43944 H        1 UNL1     0.0654
     44 H         -2.018763   -5.194089   4.160295 H        1 UNL1     0.0623
     45 H         -3.117622   -8.711499   7.582378 H        1 UNL1     0.2921
     46 H         -7.705619   -1.799181   3.162465 H        1 UNL1     0.2922
     47 H         -1.581026   2.578874   1.784146 H        1 UNL1     0.2126
     48 H         1.619839   -0.748199   2.210808 H        1 UNL1     0.2101
     49 H         -2.550854   -1.343268   1.085559 H        1 UNL1     0.2100
     50 H         0.941145   -2.133716   3.062875 H        1 UNL1     0.2102
@<TRIPOS>BOND
     1     1     2    1
     2     1     6    1
     3     2     3    1
     4     3     4    1
     5     3    29    1
     6     3    33    1
     7     4     5    1
     8     5     6    1
     9     5     7    1
    10     5    35    1
    11     7     8    1
    12     8     9   ar
    13     8    13   ar
    14     9    10   ar
    15     9    36    1
    16    10    11   ar
    17    10    26    1
    18    11    12   ar
    19    11    14    1
    20    12    13   ar
    21    12    17    1
    22    13    37    1
    23    14    15    1
    24    14    25    2
    25    15    16    1
    26    15    38    1
    27    15    39    1
    28    16    17    1
    29    16    18    1
    30    16    40    1
    31    18    19   ar
    32    18    23   ar
    33    19    20   ar
    34    19    41    1
    35    20    21   ar
    36    20    42    1
    37    21    22   ar
    38    21    24    1
    39    22    23   ar
    40    22    43    1
    41    23    44    1
    42    24    45    1
    43    26    46    1
    44    27    47    1
    45    28    48    1
    46    29    49    1
    47    30    50    1
    48     1    31    1
    49     1    27    1
    50     2    32    1
    51     2    28    1
    52     4    34    1
    53     4    30    1
