@<TRIPOS>MOLECULE
*****
 50 53 0 0 0
SMALL
GASTEIGER

@<TRIPOS>ATOM
     1 C         -0.316869   -1.362342   1.677624 C.3        1 UNL1     0.1889
     2 C         -0.457095   -0.981054   0.179326 C.3        1 UNL1     0.1342
     3 C         -1.900857   -0.964719   -0.345795 C.3        1 UNL1     0.1174
     4 C         -2.77889   -2.04047   0.298359 C.3        1 UNL1     0.1456
     5 C         -2.618816   -2.094632   1.828656 C.3        1 UNL1     0.2326
     6 O         -1.251089   -2.313272   2.166869 O.3        1 UNL1     -0.3076
     7 O         -3.195207   -0.962951   2.505702 O.3        1 UNL1     -0.4605
     8 C         -3.707488   -1.207601   3.767147 C.ar        1 UNL1     0.1310
     9 C         -4.524435   -2.288989   4.114274 C.ar        1 UNL1     0.0226
     10 C         -4.980075   -2.459722   5.426961 C.ar        1 UNL1     0.1343
     11 C         -4.60991   -1.565389   6.430448 C.ar        1 UNL1     0.1007
     12 C         -3.828169   -0.458998   6.087572 C.ar        1 UNL1     0.1389
     13 C         -3.372331   -0.286101   4.767061 C.ar        1 UNL1     0.0229
     14 C         -4.993465   -1.744023   7.850001 C.2        1 UNL1     0.1740
     15 C         -4.326623   -0.81787   8.824224 C.3        1 UNL1     0.0520
     16 C         -4.256202   0.568872   8.199768 C.3        1 UNL1     0.1322
     17 O         -3.495103   0.540409   6.972173 O.3        1 UNL1     -0.4828
     18 C         -5.6153   1.263843   8.087556 C.ar        1 UNL1     -0.0067
     19 C         -5.984517   1.870338   6.869337 C.ar        1 UNL1     -0.0516
     20 C         -7.199533   2.554979   6.747012 C.ar        1 UNL1     -0.0198
     21 C         -8.048801   2.646315   7.835235 C.ar        1 UNL1     0.1169
     22 C         -7.72823   2.030903   9.03829 C.ar        1 UNL1     -0.0198
     23 C         -6.521694   1.330474   9.155453 C.ar        1 UNL1     -0.0516
     24 O         -9.206067   3.353365   7.689576 O.3        1 UNL1     -0.5068
     25 O         -5.742956   -2.635073   8.240869 O.2        1 UNL1     -0.2917
     26 O         -5.774827   -3.534725   5.699582 O.3        1 UNL1     -0.5058
     27 O         -0.211965   -0.240057   2.539168 O.3        1 UNL1     -0.3648
     28 O         0.27354   -1.941328   -0.60601 O.3        1 UNL1     -0.3841
     29 O         -2.463617   0.344677   -0.241318 O.3        1 UNL1     -0.3863
     30 O         -2.428506   -3.329392   -0.250821 O.3        1 UNL1     -0.3829
     31 H         0.646667   -1.873096   1.781589 H        1 UNL1     0.0937
     32 H         0.0   0.0   0.0 H        1 UNL1     0.0671
     33 H         -1.868644   -1.183404   -1.422298 H        1 UNL1     0.0649
     34 H         -3.831167   -1.86193   0.050896 H        1 UNL1     0.0683
     35 H         -3.167929   -2.998701   2.120224 H        1 UNL1     0.1085
     36 H         -4.80133   -3.049298   3.392208 H        1 UNL1     0.0691
     37 H         -2.76589   0.584217   4.525674 H        1 UNL1     0.0691
     38 H         -3.324639   -1.212552   9.023678 H        1 UNL1     0.0385
     39 H         -4.8887   -0.82056   9.764352 H        1 UNL1     0.0385
     40 H         -3.662719   1.198728   8.876213 H        1 UNL1     0.0789
     41 H         -5.331162   1.820646   6.003133 H        1 UNL1     0.0623
     42 H         -7.467522   3.028625   5.805815 H        1 UNL1     0.0654
     43 H         -8.392885   2.083396   9.892333 H        1 UNL1     0.0654
     44 H         -6.308225   0.852901   10.106872 H        1 UNL1     0.0623
     45 H         -8.978717   4.276809   7.493924 H        1 UNL1     0.2921
     46 H         -5.373028   -4.062878   6.407413 H        1 UNL1     0.2922
     47 H         0.514075   0.332964   2.255668 H        1 UNL1     0.2126
     48 H         1.213734   -1.847097   -0.359255 H        1 UNL1     0.2101
     49 H         -2.036676   0.939181   -0.878562 H        1 UNL1     0.2100
     50 H         -2.672082   -3.329136   -1.199707 H        1 UNL1     0.2102
@<TRIPOS>BOND
     1     1     2    1
     2     1     6    1
     3     2     3    1
     4     3     4    1
     5     3    29    1
     6     3    33    1
     7     4     5    1
     8     5     6    1
     9     5     7    1
    10     5    35    1
    11     7     8    1
    12     8     9   ar
    13     8    13   ar
    14     9    10   ar
    15     9    36    1
    16    10    11   ar
    17    10    26    1
    18    11    12   ar
    19    11    14    1
    20    12    13   ar
    21    12    17    1
    22    13    37    1
    23    14    15    1
    24    14    25    2
    25    15    16    1
    26    15    38    1
    27    15    39    1
    28    16    17    1
    29    16    18    1
    30    16    40    1
    31    18    19   ar
    32    18    23   ar
    33    19    20   ar
    34    19    41    1
    35    20    21   ar
    36    20    42    1
    37    21    22   ar
    38    21    24    1
    39    22    23   ar
    40    22    43    1
    41    23    44    1
    42    24    45    1
    43    26    46    1
    44    27    47    1
    45    28    48    1
    46    29    49    1
    47    30    50    1
    48     1    31    1
    49     1    27    1
    50     2    32    1
    51     2    28    1
    52     4    34    1
    53     4    30    1
