@<TRIPOS>MOLECULE
*****
 50 53 0 0 0
SMALL
GASTEIGER

@<TRIPOS>ATOM
     1 C         -0.3709   -1.397714   1.636958 C.3        1 UNL1     0.1889
     2 C         -0.487848   -0.971291   0.148864 C.3        1 UNL1     0.1342
     3 C         -1.92631   -0.896714   -0.385674 C.3        1 UNL1     0.1174
     4 C         -2.841382   -1.962629   0.222263 C.3        1 UNL1     0.1456
     5 C         -2.694984   -2.063684   1.75155 C.3        1 UNL1     0.2326
     6 O         -1.337156   -2.332948   2.093117 O.3        1 UNL1     -0.3076
     7 O         -3.242278   -0.934078   2.455666 O.3        1 UNL1     -0.4605
     8 C         -3.771549   -1.197663   3.706236 C.ar        1 UNL1     0.1310
     9 C         -4.620636   -2.264889   4.018292 C.ar        1 UNL1     0.0226
     10 C         -5.091694   -2.457523   5.322477 C.ar        1 UNL1     0.1343
     11 C         -4.705574   -1.600484   6.352154 C.ar        1 UNL1     0.1007
     12 C         -3.89103   -0.507414   6.044745 C.ar        1 UNL1     0.1389
     13 C         -3.41965   -0.312418   4.732796 C.ar        1 UNL1     0.0229
     14 C         -5.105683   -1.805815   7.763503 C.2        1 UNL1     0.1740
     15 C         -4.421892   -0.924387   8.767028 C.3        1 UNL1     0.0520
     16 C         -4.308363   0.475858   8.180186 C.3        1 UNL1     0.1322
     17 O         -3.538128   0.458778   6.95809 O.3        1 UNL1     -0.4828
     18 C         -5.646959   1.210746   8.076146 C.ar        1 UNL1     -0.0067
     19 C         -5.662126   2.575221   7.720911 C.ar        1 UNL1     -0.0516
     20 C         -6.865056   3.289053   7.662914 C.ar        1 UNL1     -0.0198
     21 C         -8.056083   2.653123   7.964369 C.ar        1 UNL1     0.1169
     22 C         -8.076944   1.301965   8.284956 C.ar        1 UNL1     -0.0198
     23 C         -6.876103   0.583335   8.325053 C.ar        1 UNL1     -0.0516
     24 O         -9.203493   3.389964   7.934121 O.3        1 UNL1     -0.5068
     25 O         -5.882498   -2.685854   8.124853 O.2        1 UNL1     -0.2917
     26 O         -5.9178   -3.517019   5.560394 O.3        1 UNL1     -0.5058
     27 O         -0.238954   -0.303245   2.529995 O.3        1 UNL1     -0.3648
     28 O         0.219628   -1.931337   -0.657669 O.3        1 UNL1     -0.3841
     29 O         -2.450145   0.425789   -0.248871 O.3        1 UNL1     -0.3863
     30 O         -2.525726   -3.246003   -0.359978 O.3        1 UNL1     -0.3829
     31 H         0.57596   -1.940139   1.733452 H        1 UNL1     0.0937
     32 H         0.0   0.0   0.0 H        1 UNL1     0.0671
     33 H         -1.892287   -1.086592   -1.467574 H        1 UNL1     0.0649
     34 H         -3.885831   -1.745501   -0.027499 H        1 UNL1     0.0683
     35 H         -3.273363   -2.958348   2.014102 H        1 UNL1     0.1085
     36 H         -4.912203   -2.997988   3.274198 H        1 UNL1     0.0691
     37 H         -2.787637   0.54691   4.519233 H        1 UNL1     0.0691
     38 H         -3.432777   -1.351658   8.963539 H        1 UNL1     0.0385
     39 H         -4.991644   -0.93635   9.702452 H        1 UNL1     0.0385
     40 H         -3.703527   1.071073   8.877618 H        1 UNL1     0.0789
     41 H         -4.739706   3.099487   7.488668 H        1 UNL1     0.0623
     42 H         -6.862407   4.343806   7.399283 H        1 UNL1     0.0654
     43 H         -9.005618   0.790428   8.508127 H        1 UNL1     0.0654
     44 H         -6.930687   -0.473267   8.568896 H        1 UNL1     0.0623
     45 H         -8.967275   4.328644   8.010262 H        1 UNL1     0.2921
     46 H         -5.704813   -3.905908   6.42342 H        1 UNL1     0.2922
     47 H         -0.315726   -0.606835   3.445309 H        1 UNL1     0.2126
     48 H         0.945957   -1.447409   -1.095839 H        1 UNL1     0.2101
     49 H         -2.998742   0.482488   0.549641 H        1 UNL1     0.2100
     50 H         -1.575285   -3.243807   -0.597403 H        1 UNL1     0.2102
@<TRIPOS>BOND
     1     1     2    1
     2     1     6    1
     3     2     3    1
     4     3     4    1
     5     3    29    1
     6     3    33    1
     7     4     5    1
     8     5     6    1
     9     5     7    1
    10     5    35    1
    11     7     8    1
    12     8     9   ar
    13     8    13   ar
    14     9    10   ar
    15     9    36    1
    16    10    11   ar
    17    10    26    1
    18    11    12   ar
    19    11    14    1
    20    12    13   ar
    21    12    17    1
    22    13    37    1
    23    14    15    1
    24    14    25    2
    25    15    16    1
    26    15    38    1
    27    15    39    1
    28    16    17    1
    29    16    18    1
    30    16    40    1
    31    18    19   ar
    32    18    23   ar
    33    19    20   ar
    34    19    41    1
    35    20    21   ar
    36    20    42    1
    37    21    22   ar
    38    21    24    1
    39    22    23   ar
    40    22    43    1
    41    23    44    1
    42    24    45    1
    43    26    46    1
    44    27    47    1
    45    28    48    1
    46    29    49    1
    47    30    50    1
    48     1    31    1
    49     1    27    1
    50     2    32    1
    51     2    28    1
    52     4    34    1
    53     4    30    1
