@<TRIPOS>MOLECULE
*****
 50 53 0 0 0
SMALL
GASTEIGER

@<TRIPOS>ATOM
     1 C         1.875903   0.376555   -1.053565 C.3        1 UNL1     0.1889
     2 C         0.623109   -0.491142   -0.757678 C.3        1 UNL1     0.1342
     3 C         0.929914   -1.925654   -0.301046 C.3        1 UNL1     0.1174
     4 C         2.174712   -2.509301   -0.974064 C.3        1 UNL1     0.1456
     5 C         3.363339   -1.530795   -0.966581 C.3        1 UNL1     0.2326
     6 O         2.991658   -0.309658   -1.601833 O.3        1 UNL1     -0.3076
     7 O         3.938483   -1.337517   0.338476 O.3        1 UNL1     -0.4605
     8 C         5.280982   -1.005163   0.366136 C.ar        1 UNL1     0.1310
     9 C         6.252385   -1.622449   1.161519 C.ar        1 UNL1     0.0226
     10 C         7.593427   -1.224482   1.105571 C.ar        1 UNL1     0.1343
     11 C         8.000039   -0.214613   0.234553 C.ar        1 UNL1     0.1007
     12 C         7.032443   0.43712   -0.534724 C.ar        1 UNL1     0.1389
     13 C         5.683673   0.038571   -0.476349 C.ar        1 UNL1     0.0229
     14 C         9.416375   0.188253   0.073791 C.2        1 UNL1     0.1740
     15 C         9.699251   1.128121   -1.061188 C.3        1 UNL1     0.0520
     16 C         8.579367   2.157575   -1.124776 C.3        1 UNL1     0.1322
     17 O         7.304215   1.515189   -1.344769 O.3        1 UNL1     -0.4828
     18 C         8.594592   3.157004   0.034376 C.ar        1 UNL1     -0.0067
     19 C         7.525462   4.064689   0.180265 C.ar        1 UNL1     -0.0516
     20 C         7.530873   5.022875   1.200957 C.ar        1 UNL1     -0.0198
     21 C         8.600633   5.088276   2.075692 C.ar        1 UNL1     0.1169
     22 C         9.652309   4.186444   1.978145 C.ar        1 UNL1     -0.0198
     23 C         9.638402   3.216239   0.968906 C.ar        1 UNL1     -0.0516
     24 O         8.588843   6.059073   3.033719 O.3        1 UNL1     -0.5068
     25 O         10.329944   -0.264293   0.758685 O.2        1 UNL1     -0.2917
     26 O         8.491099   -1.866225   1.908028 O.3        1 UNL1     -0.5058
     27 O         2.25466   1.210599   0.029809 O.3        1 UNL1     -0.3648
     28 O         -0.162397   -0.583278   -1.960673 O.3        1 UNL1     -0.3841
     29 O         0.983892   -2.003273   1.124855 O.3        1 UNL1     -0.3863
     30 O         1.859442   -2.846072   -2.342596 O.3        1 UNL1     -0.3829
     31 H         1.591211   1.076933   -1.846345 H        1 UNL1     0.0937
     32 H         0.0   0.0   0.0 H        1 UNL1     0.0671
     33 H         0.082298   -2.55995   -0.595895 H        1 UNL1     0.0649
     34 H         2.46861   -3.439164   -0.474685 H        1 UNL1     0.0683
     35 H         4.10712   -2.013149   -1.613112 H        1 UNL1     0.1085
     36 H         6.009729   -2.451012   1.817814 H        1 UNL1     0.0691
     37 H         4.949612   0.562744   -1.084535 H        1 UNL1     0.0691
     38 H         9.742256   0.534025   -1.980279 H        1 UNL1     0.0385
     39 H         10.679637   1.591779   -0.907424 H        1 UNL1     0.0385
     40 H         8.743475   2.758966   -2.029163 H        1 UNL1     0.0789
     41 H         6.678438   4.039786   -0.499132 H        1 UNL1     0.0623
     42 H         6.706195   5.724967   1.295742 H        1 UNL1     0.0654
     43 H         10.487858   4.21908   2.667132 H        1 UNL1     0.0654
     44 H         10.471398   2.521009   0.928672 H        1 UNL1     0.0623
     45 H         7.976607   6.758748   2.753826 H        1 UNL1     0.2921
     46 H         8.620123   -2.773209   1.588426 H        1 UNL1     0.2922
     47 H         1.496542   1.728497   0.3346 H        1 UNL1     0.2126
     48 H         -0.577425   0.291024   -2.091358 H        1 UNL1     0.2101
     49 H         0.553319   -2.818628   1.427507 H        1 UNL1     0.2100
     50 H         1.221991   -3.589868   -2.330886 H        1 UNL1     0.2102
@<TRIPOS>BOND
     1     1     2    1
     2     1     6    1
     3     2     3    1
     4     3     4    1
     5     3    29    1
     6     3    33    1
     7     4     5    1
     8     5     6    1
     9     5     7    1
    10     5    35    1
    11     7     8    1
    12     8     9   ar
    13     8    13   ar
    14     9    10   ar
    15     9    36    1
    16    10    11   ar
    17    10    26    1
    18    11    12   ar
    19    11    14    1
    20    12    13   ar
    21    12    17    1
    22    13    37    1
    23    14    15    1
    24    14    25    2
    25    15    16    1
    26    15    38    1
    27    15    39    1
    28    16    17    1
    29    16    18    1
    30    16    40    1
    31    18    19   ar
    32    18    23   ar
    33    19    20   ar
    34    19    41    1
    35    20    21   ar
    36    20    42    1
    37    21    22   ar
    38    21    24    1
    39    22    23   ar
    40    22    43    1
    41    23    44    1
    42    24    45    1
    43    26    46    1
    44    27    47    1
    45    28    48    1
    46    29    49    1
    47    30    50    1
    48     1    31    1
    49     1    27    1
    50     2    32    1
    51     2    28    1
    52     4    34    1
    53     4    30    1
