@<TRIPOS>MOLECULE
*****
 50 53 0 0 0
SMALL
GASTEIGER

@<TRIPOS>ATOM
     1 C         -0.161215   0.911831   1.978226 C.3        1 UNL1     0.1889
     2 C         0.353487   -0.195744   1.019947 C.3        1 UNL1     0.1342
     3 C         -0.041206   -1.625267   1.421381 C.3        1 UNL1     0.1174
     4 C         -0.081628   -1.825978   2.938351 C.3        1 UNL1     0.1456
     5 C         -0.827958   -0.691683   3.664113 C.3        1 UNL1     0.2326
     6 O         -0.22622   0.562945   3.353161 O.3        1 UNL1     -0.3076
     7 O         -2.249944   -0.707604   3.442705 O.3        1 UNL1     -0.4605
     8 C         -3.030857   -0.238877   4.483857 C.ar        1 UNL1     0.1310
     9 C         -2.87275   -0.57824   5.831869 C.ar        1 UNL1     0.0226
     10 C         -3.706081   -0.035706   6.817323 C.ar        1 UNL1     0.1343
     11 C         -4.703466   0.878643   6.481125 C.ar        1 UNL1     0.1007
     12 C         -4.897573   1.19379   5.133612 C.ar        1 UNL1     0.1389
     13 C         -4.061241   0.646109   4.142641 C.ar        1 UNL1     0.0229
     14 C         -5.557327   1.546384   7.490678 C.2        1 UNL1     0.1740
     15 C         -6.420336   2.660892   6.97625 C.3        1 UNL1     0.0520
     16 C         -6.982734   2.249274   5.622648 C.3        1 UNL1     0.1322
     17 O         -5.917464   1.997625   4.67981 O.3        1 UNL1     -0.4828
     18 C         -8.033489   1.139289   5.703709 C.ar        1 UNL1     -0.0067
     19 C         -7.930065   0.023878   4.847335 C.ar        1 UNL1     -0.0516
     20 C         -8.899761   -0.985784   4.862567 C.ar        1 UNL1     -0.0198
     21 C         -9.979101   -0.888288   5.722421 C.ar        1 UNL1     0.1169
     22 C         -10.091025   0.181295   6.60123 C.ar        1 UNL1     -0.0198
     23 C         -9.111779   1.181859   6.599183 C.ar        1 UNL1     -0.0516
     24 O         -10.923341   -1.871758   5.682447 O.3        1 UNL1     -0.5068
     25 O         -5.521706   1.279892   8.689093 O.2        1 UNL1     -0.2917
     26 O         -3.500149   -0.408477   8.113555 O.3        1 UNL1     -0.5058
     27 O         -1.36029   1.528639   1.537143 O.3        1 UNL1     -0.3648
     28 O         1.791821   -0.140841   0.990136 O.3        1 UNL1     -0.3841
     29 O         -1.256747   -2.015004   0.778967 O.3        1 UNL1     -0.3863
     30 O         1.269666   -1.890244   3.443883 O.3        1 UNL1     -0.3829
     31 H         0.581212   1.716974   1.953182 H        1 UNL1     0.0937
     32 H         0.0   0.0   0.0 H        1 UNL1     0.0671
     33 H         0.726878   -2.307396   1.030911 H        1 UNL1     0.0649
     34 H         -0.558771   -2.783099   3.176373 H        1 UNL1     0.0683
     35 H         -0.633135   -0.884262   4.72658 H        1 UNL1     0.1085
     36 H         -2.080429   -1.240017   6.164133 H        1 UNL1     0.0691
     37 H         -4.233798   0.906588   3.100591 H        1 UNL1     0.0691
     38 H         -5.791269   3.553068   6.887812 H        1 UNL1     0.0385
     39 H         -7.209668   2.869923   7.706346 H        1 UNL1     0.0385
     40 H         -7.511529   3.120661   5.213284 H        1 UNL1     0.0789
     41 H         -7.097213   -0.071434   4.156739 H        1 UNL1     0.0623
     42 H         -8.815081   -1.834973   4.18898 H        1 UNL1     0.0654
     43 H         -10.924262   0.259967   7.289298 H        1 UNL1     0.0654
     44 H         -9.225453   1.997698   7.306524 H        1 UNL1     0.0623
     45 H         -11.306793   -1.892702   4.790683 H        1 UNL1     0.2921
     46 H         -3.346016   0.380706   8.656551 H        1 UNL1     0.2922
     47 H         -1.244406   1.886743   0.645968 H        1 UNL1     0.2126
     48 H         2.030961   0.740657   0.644438 H        1 UNL1     0.2101
     49 H         -1.105928   -2.125828   -0.173275 H        1 UNL1     0.2100
     50 H         1.689208   -2.697771   3.081121 H        1 UNL1     0.2102
@<TRIPOS>BOND
     1     1     2    1
     2     1     6    1
     3     2     3    1
     4     3     4    1
     5     3    29    1
     6     3    33    1
     7     4     5    1
     8     5     6    1
     9     5     7    1
    10     5    35    1
    11     7     8    1
    12     8     9   ar
    13     8    13   ar
    14     9    10   ar
    15     9    36    1
    16    10    11   ar
    17    10    26    1
    18    11    12   ar
    19    11    14    1
    20    12    13   ar
    21    12    17    1
    22    13    37    1
    23    14    15    1
    24    14    25    2
    25    15    16    1
    26    15    38    1
    27    15    39    1
    28    16    17    1
    29    16    18    1
    30    16    40    1
    31    18    19   ar
    32    18    23   ar
    33    19    20   ar
    34    19    41    1
    35    20    21   ar
    36    20    42    1
    37    21    22   ar
    38    21    24    1
    39    22    23   ar
    40    22    43    1
    41    23    44    1
    42    24    45    1
    43    26    46    1
    44    27    47    1
    45    28    48    1
    46    29    49    1
    47    30    50    1
    48     1    31    1
    49     1    27    1
    50     2    32    1
    51     2    28    1
    52     4    34    1
    53     4    30    1
