@<TRIPOS>MOLECULE
*****
 50 53 0 0 0
SMALL
GASTEIGER

@<TRIPOS>ATOM
     1 C         0.908314   1.436232   -1.372227 C.3        1 UNL1     0.1889
     2 C         0.090655   1.088811   -0.099171 C.3        1 UNL1     0.1342
     3 C         -1.311246   1.715216   -0.046683 C.3        1 UNL1     0.1174
     4 C         -1.364365   3.105488   -0.684993 C.3        1 UNL1     0.1456
     5 C         -0.654357   3.155668   -2.05018 C.3        1 UNL1     0.2326
     6 O         0.70041   2.734224   -1.909246 O.3        1 UNL1     -0.3076
     7 O         -1.360167   2.453573   -3.089513 O.3        1 UNL1     -0.4605
     8 C         -2.602506   2.959654   -3.427159 C.ar        1 UNL1     0.1310
     9 C         -3.187717   2.891427   -4.696085 C.ar        1 UNL1     0.0226
     10 C         -4.461821   3.420152   -4.934858 C.ar        1 UNL1     0.1343
     11 C         -5.192213   4.009343   -3.903731 C.ar        1 UNL1     0.1007
     12 C         -4.601647   4.120009   -2.642078 C.ar        1 UNL1     0.1389
     13 C         -3.319457   3.590662   -2.402889 C.ar        1 UNL1     0.0229
     14 C         -6.575539   4.508792   -4.080117 C.2        1 UNL1     0.1740
     15 C         -7.288472   4.904636   -2.82052 C.3        1 UNL1     0.0520
     16 C         -6.302036   5.6311   -1.916556 C.3        1 UNL1     0.1322
     17 O         -5.186035   4.776217   -1.583707 O.3        1 UNL1     -0.4828
     18 C         -5.907727   7.019843   -2.425119 C.ar        1 UNL1     -0.0067
     19 C         -6.527075   7.535218   -3.582275 C.ar        1 UNL1     -0.0516
     20 C         -6.155955   8.7814   -4.101181 C.ar        1 UNL1     -0.0198
     21 C         -5.163911   9.516942   -3.477761 C.ar        1 UNL1     0.1169
     22 C         -4.559021   9.051143   -2.317598 C.ar        1 UNL1     -0.0198
     23 C         -4.942922   7.813325   -1.787992 C.ar        1 UNL1     -0.0516
     24 O         -4.802476   10.708972   -4.033485 O.3        1 UNL1     -0.5068
     25 O         -7.152998   4.53188   -5.163857 O.2        1 UNL1     -0.2917
     26 O         -4.975413   3.322262   -6.195106 O.3        1 UNL1     -0.5058
     27 O         0.841834   0.436886   -2.377053 O.3        1 UNL1     -0.3648
     28 O         0.814852   1.562477   1.051431 O.3        1 UNL1     -0.3841
     29 O         -2.286705   0.820959   -0.586049 O.3        1 UNL1     -0.3863
     30 O         -0.735635   4.057598   0.200374 O.3        1 UNL1     -0.3829
     31 H         1.962193   1.448524   -1.073453 H        1 UNL1     0.0937
     32 H         -0.0   0.0   0.0 H        1 UNL1     0.0671
     33 H         -1.583237   1.840391   1.010706 H        1 UNL1     0.0649
     34 H         -2.406344   3.421222   -0.807442 H        1 UNL1     0.0683
     35 H         -0.631836   4.224408   -2.297497 H        1 UNL1     0.1085
     36 H         -2.694623   2.396509   -5.525564 H        1 UNL1     0.0691
     37 H         -2.88144   3.690663   -1.412115 H        1 UNL1     0.0691
     38 H         -7.657417   3.988596   -2.346941 H        1 UNL1     0.0385
     39 H         -8.151463   5.528365   -3.077402 H        1 UNL1     0.0385
     40 H         -6.809412   5.805862   -0.958147 H        1 UNL1     0.0789
     41 H         -7.302036   6.97312   -4.095239 H        1 UNL1     0.0623
     42 H         -6.63262   9.162607   -5.000895 H        1 UNL1     0.0654
     43 H         -3.791644   9.625832   -1.812844 H        1 UNL1     0.0654
     44 H         -4.456794   7.485107   -0.874319 H        1 UNL1     0.0623
     45 H         -5.517139   11.00242   -4.621586 H        1 UNL1     0.2921
     46 H         -5.943532   3.372513   -6.154722 H        1 UNL1     0.2922
     47 H         0.591259   -0.412743   -1.988206 H        1 UNL1     0.2126
     48 H         0.150297   1.753167   1.741167 H        1 UNL1     0.2101
     49 H         -1.857585   0.182061   -1.177201 H        1 UNL1     0.2100
     50 H         -0.972582   3.816402   1.119827 H        1 UNL1     0.2102
@<TRIPOS>BOND
     1     1     2    1
     2     1     6    1
     3     2     3    1
     4     3     4    1
     5     3    29    1
     6     3    33    1
     7     4     5    1
     8     5     6    1
     9     5     7    1
    10     5    35    1
    11     7     8    1
    12     8     9   ar
    13     8    13   ar
    14     9    10   ar
    15     9    36    1
    16    10    11   ar
    17    10    26    1
    18    11    12   ar
    19    11    14    1
    20    12    13   ar
    21    12    17    1
    22    13    37    1
    23    14    15    1
    24    14    25    2
    25    15    16    1
    26    15    38    1
    27    15    39    1
    28    16    17    1
    29    16    18    1
    30    16    40    1
    31    18    19   ar
    32    18    23   ar
    33    19    20   ar
    34    19    41    1
    35    20    21   ar
    36    20    42    1
    37    21    22   ar
    38    21    24    1
    39    22    23   ar
    40    22    43    1
    41    23    44    1
    42    24    45    1
    43    26    46    1
    44    27    47    1
    45    28    48    1
    46    29    49    1
    47    30    50    1
    48     1    31    1
    49     1    27    1
    50     2    32    1
    51     2    28    1
    52     4    34    1
    53     4    30    1
