@<TRIPOS>MOLECULE
*****
 50 53 0 0 0
SMALL
GASTEIGER

@<TRIPOS>ATOM
     1 C         0.245333   1.487914   1.580104 C.3        1 UNL1     0.1889
     2 C         0.758469   0.288863   0.738136 C.3        1 UNL1     0.1342
     3 C         1.155508   -0.947753   1.558871 C.3        1 UNL1     0.1174
     4 C         1.774917   -0.588349   2.911749 C.3        1 UNL1     0.1456
     5 C         0.97007   0.48858   3.661955 C.3        1 UNL1     0.2326
     6 O         0.850221   1.656976   2.853652 O.3        1 UNL1     -0.3076
     7 O         -0.293323   0.014962   4.1628 O.3        1 UNL1     -0.4605
     8 C         -0.543206   -1.335494   3.997408 C.ar        1 UNL1     0.1310
     9 C         0.246509   -2.220865   3.255944 C.ar        1 UNL1     0.0226
     10 C         -0.08162   -3.578595   3.162123 C.ar        1 UNL1     0.1343
     11 C         -1.195327   -4.088946   3.827735 C.ar        1 UNL1     0.1007
     12 C         -2.014557   -3.207039   4.537584 C.ar        1 UNL1     0.1389
     13 C         -1.685883   -1.841411   4.629592 C.ar        1 UNL1     0.0229
     14 C         -1.541122   -5.529281   3.831604 C.2        1 UNL1     0.1740
     15 C         -2.635259   -5.93179   4.776274 C.3        1 UNL1     0.0520
     16 C         -3.720908   -4.865062   4.738644 C.3        1 UNL1     0.1322
     17 O         -3.192954   -3.581705   5.140304 O.3        1 UNL1     -0.4828
     18 C         -4.517506   -4.842462   3.431876 C.ar        1 UNL1     -0.0067
     19 C         -3.915144   -4.335061   2.262296 C.ar        1 UNL1     -0.0516
     20 C         -4.631066   -4.256189   1.061797 C.ar        1 UNL1     -0.0198
     21 C         -5.949298   -4.673712   1.019756 C.ar        1 UNL1     0.1169
     22 C         -6.559639   -5.209089   2.146563 C.ar        1 UNL1     -0.0198
     23 C         -5.838221   -5.3052   3.342546 C.ar        1 UNL1     -0.0516
     24 O         -6.626327   -4.546593   -0.157474 O.3        1 UNL1     -0.5068
     25 O         -0.934742   -6.371949   3.175327 O.2        1 UNL1     -0.2917
     26 O         0.729321   -4.388925   2.422309 O.3        1 UNL1     -0.5058
     27 O         -1.169421   1.559289   1.658616 O.3        1 UNL1     -0.3648
     28 O         1.925026   0.710665   0.00743 O.3        1 UNL1     -0.3841
     29 O         0.055785   -1.852676   1.676581 O.3        1 UNL1     -0.3863
     30 O         3.118794   -0.102292   2.703344 O.3        1 UNL1     -0.3829
     31 H         0.531476   2.395932   1.038158 H        1 UNL1     0.0937
     32 H         0.0   -0.0   0.0 H        1 UNL1     0.0671
     33 H         1.923205   -1.493592   0.992812 H        1 UNL1     0.0649
     34 H         1.851557   -1.48422   3.537802 H        1 UNL1     0.0683
     35 H         1.61095   0.753359   4.512275 H        1 UNL1     0.1085
     36 H         1.155791   -1.896877   2.761618 H        1 UNL1     0.0691
     37 H         -2.340664   -1.175378   5.187405 H        1 UNL1     0.0691
     38 H         -2.196081   -6.013243   5.776282 H        1 UNL1     0.0385
     39 H         -3.013865   -6.918245   4.487583 H        1 UNL1     0.0385
     40 H         -4.450726   -5.118277   5.51952 H        1 UNL1     0.0789
     41 H         -2.884538   -3.992399   2.271535 H        1 UNL1     0.0623
     42 H         -4.159139   -3.85196   0.169667 H        1 UNL1     0.0654
     43 H         -7.586768   -5.552974   2.120896 H        1 UNL1     0.0654
     44 H         -6.34318   -5.738383   4.200575 H        1 UNL1     0.0623
     45 H         -5.988676   -4.326258   -0.855737 H        1 UNL1     0.2921
     46 H         0.583194   -5.313394   2.678073 H        1 UNL1     0.2922
     47 H         -1.570347   1.079426   0.920477 H        1 UNL1     0.2126
     48 H         1.650671   1.468363   -0.544255 H        1 UNL1     0.2101
     49 H         0.38224   -2.765871   1.712583 H        1 UNL1     0.2100
     50 H         3.058492   0.776159   2.273925 H        1 UNL1     0.2102
@<TRIPOS>BOND
     1     1     2    1
     2     1     6    1
     3     2     3    1
     4     3     4    1
     5     3    29    1
     6     3    33    1
     7     4     5    1
     8     5     6    1
     9     5     7    1
    10     5    35    1
    11     7     8    1
    12     8     9   ar
    13     8    13   ar
    14     9    10   ar
    15     9    36    1
    16    10    11   ar
    17    10    26    1
    18    11    12   ar
    19    11    14    1
    20    12    13   ar
    21    12    17    1
    22    13    37    1
    23    14    15    1
    24    14    25    2
    25    15    16    1
    26    15    38    1
    27    15    39    1
    28    16    17    1
    29    16    18    1
    30    16    40    1
    31    18    19   ar
    32    18    23   ar
    33    19    20   ar
    34    19    41    1
    35    20    21   ar
    36    20    42    1
    37    21    22   ar
    38    21    24    1
    39    22    23   ar
    40    22    43    1
    41    23    44    1
    42    24    45    1
    43    26    46    1
    44    27    47    1
    45    28    48    1
    46    29    49    1
    47    30    50    1
    48     1    31    1
    49     1    27    1
    50     2    32    1
    51     2    28    1
    52     4    34    1
    53     4    30    1
