@<TRIPOS>MOLECULE
*****
 50 53 0 0 0
SMALL
GASTEIGER

@<TRIPOS>ATOM
     1 C         -0.17754   -2.028676   0.789784 C.3        1 UNL1     0.1889
     2 C         -0.78447   -0.653762   0.400953 C.3        1 UNL1     0.1342
     3 C         -1.507671   0.074364   1.544315 C.3        1 UNL1     0.1174
     4 C         -2.226022   -0.883861   2.497675 C.3        1 UNL1     0.1456
     5 C         -1.345107   -2.077554   2.909316 C.3        1 UNL1     0.2326
     6 O         -0.906032   -2.780515   1.749175 O.3        1 UNL1     -0.3076
     7 O         -0.268524   -1.717329   3.793922 O.3        1 UNL1     -0.4605
     8 C         -0.625365   -1.003465   4.923785 C.ar        1 UNL1     0.1310
     9 C         -1.931733   -0.654444   5.282793 C.ar        1 UNL1     0.0226
     10 C         -2.193237   0.057343   6.459601 C.ar        1 UNL1     0.1343
     11 C         -1.155855   0.417027   7.318849 C.ar        1 UNL1     0.1007
     12 C         0.156729   0.109943   6.950604 C.ar        1 UNL1     0.1389
     13 C         0.419645   -0.603449   5.765961 C.ar        1 UNL1     0.0229
     14 C         -1.383051   1.095781   8.615703 C.2        1 UNL1     0.1740
     15 C         -0.183087   1.205995   9.509843 C.3        1 UNL1     0.0520
     16 C         1.028458   1.541588   8.651069 C.3        1 UNL1     0.1322
     17 O         1.260946   0.50995   7.666821 O.3        1 UNL1     -0.4828
     18 C         1.008527   2.964101   8.086462 C.ar        1 UNL1     -0.0067
     19 C         1.163898   4.058766   8.961552 C.ar        1 UNL1     -0.0516
     20 C         1.103187   5.373704   8.484881 C.ar        1 UNL1     -0.0198
     21 C         0.880777   5.606785   7.139506 C.ar        1 UNL1     0.1169
     22 C         0.757313   4.549265   6.24774 C.ar        1 UNL1     -0.0198
     23 C         0.836399   3.23412   6.72123 C.ar        1 UNL1     -0.0516
     24 O         0.790022   6.900804   6.717987 O.3        1 UNL1     -0.5068
     25 O         -2.486709   1.480162   8.993428 O.2        1 UNL1     -0.2917
     26 O         -3.489374   0.367714   6.751631 O.3        1 UNL1     -0.5058
     27 O         1.202876   -1.966707   1.111344 O.3        1 UNL1     -0.3648
     28 O         -1.745492   -0.860465   -0.65091 O.3        1 UNL1     -0.3841
     29 O         -0.618302   0.964996   2.22102 O.3        1 UNL1     -0.3863
     30 O         -3.417834   -1.386368   1.85521 O.3        1 UNL1     -0.3829
     31 H         -0.217235   -2.653608   -0.109083 H        1 UNL1     0.0937
     32 H         0.0   0.0   0.0 H        1 UNL1     0.0671
     33 H         -2.279674   0.716456   1.097717 H        1 UNL1     0.0649
     34 H         -2.548668   -0.345769   3.395872 H        1 UNL1     0.0683
     35 H         -2.034481   -2.743179   3.443718 H        1 UNL1     0.1085
     36 H         -2.786324   -0.95333   4.685748 H        1 UNL1     0.0691
     37 H         1.450391   -0.829243   5.501249 H        1 UNL1     0.0691
     38 H         -0.055486   0.241712   10.013234 H        1 UNL1     0.0385
     39 H         -0.37321   1.967948   10.273425 H        1 UNL1     0.0385
     40 H         1.910059   1.500826   9.30501 H        1 UNL1     0.0789
     41 H         1.330375   3.90237   10.023379 H        1 UNL1     0.0623
     42 H         1.212622   6.209472   9.17156 H        1 UNL1     0.0654
     43 H         0.597904   4.720435   5.189817 H        1 UNL1     0.0654
     44 H         0.746138   2.432219   5.994833 H        1 UNL1     0.0623
     45 H         0.174117   7.371362   7.302754 H        1 UNL1     0.2921
     46 H         -4.043746   0.208999   5.971315 H        1 UNL1     0.2922
     47 H         1.650437   -1.324082   0.543382 H        1 UNL1     0.2126
     48 H         -2.323712   -0.073502   -0.660085 H        1 UNL1     0.2101
     49 H         -0.769038   0.917512   3.178526 H        1 UNL1     0.2100
     50 H         -3.140292   -1.976863   1.124458 H        1 UNL1     0.2102
@<TRIPOS>BOND
     1     1     2    1
     2     1     6    1
     3     2     3    1
     4     3     4    1
     5     3    29    1
     6     3    33    1
     7     4     5    1
     8     5     6    1
     9     5     7    1
    10     5    35    1
    11     7     8    1
    12     8     9   ar
    13     8    13   ar
    14     9    10   ar
    15     9    36    1
    16    10    11   ar
    17    10    26    1
    18    11    12   ar
    19    11    14    1
    20    12    13   ar
    21    12    17    1
    22    13    37    1
    23    14    15    1
    24    14    25    2
    25    15    16    1
    26    15    38    1
    27    15    39    1
    28    16    17    1
    29    16    18    1
    30    16    40    1
    31    18    19   ar
    32    18    23   ar
    33    19    20   ar
    34    19    41    1
    35    20    21   ar
    36    20    42    1
    37    21    22   ar
    38    21    24    1
    39    22    23   ar
    40    22    43    1
    41    23    44    1
    42    24    45    1
    43    26    46    1
    44    27    47    1
    45    28    48    1
    46    29    49    1
    47    30    50    1
    48     1    31    1
    49     1    27    1
    50     2    32    1
    51     2    28    1
    52     4    34    1
    53     4    30    1
