@<TRIPOS>MOLECULE
*****
 50 53 0 0 0
SMALL
GASTEIGER

@<TRIPOS>ATOM
     1 C         -0.33531   -1.330404   1.699528 C.3        1 UNL1     0.1889
     2 C         -0.464056   -0.975005   0.193854 C.3        1 UNL1     0.1342
     3 C         -1.904445   -0.959521   -0.340474 C.3        1 UNL1     0.1174
     4 C         -2.792842   -2.018464   0.31718 C.3        1 UNL1     0.1456
     5 C         -2.642486   -2.046342   1.849165 C.3        1 UNL1     0.2326
     6 O         -1.278194   -2.266972   2.199734 O.3        1 UNL1     -0.3076
     7 O         -3.216231   -0.899429   2.50241 O.3        1 UNL1     -0.4605
     8 C         -3.727511   -1.116106   3.769363 C.ar        1 UNL1     0.1310
     9 C         -4.545875   -2.188417   4.140483 C.ar        1 UNL1     0.0226
     10 C         -5.000334   -2.330192   5.45702 C.ar        1 UNL1     0.1343
     11 C         -4.627556   -1.415176   6.440698 C.ar        1 UNL1     0.1007
     12 C         -3.844351   -0.317717   6.073331 C.ar        1 UNL1     0.1389
     13 C         -3.3897   -0.173947   4.748924 C.ar        1 UNL1     0.0229
     14 C         -5.009824   -1.56268   7.864168 C.2        1 UNL1     0.1740
     15 C         -4.340349   -0.616981   8.817586 C.3        1 UNL1     0.0520
     16 C         -4.268309   0.755931   8.16346 C.3        1 UNL1     0.1322
     17 O         -3.508629   0.699863   6.935937 O.3        1 UNL1     -0.4828
     18 C         -5.626369   1.450637   8.037838 C.ar        1 UNL1     -0.0067
     19 C         -6.002219   2.01845   6.803116 C.ar        1 UNL1     -0.0516
     20 C         -7.216295   2.702109   6.666767 C.ar        1 UNL1     -0.0198
     21 C         -8.058007   2.830901   7.75707 C.ar        1 UNL1     0.1169
     22 C         -7.730926   2.253819   8.977247 C.ar        1 UNL1     -0.0198
     23 C         -6.525405   1.554237   9.109004 C.ar        1 UNL1     -0.0516
     24 O         -9.214434   3.536045   7.596291 O.3        1 UNL1     -0.5068
     25 O         -5.760365   -2.443873   8.274864 O.2        1 UNL1     -0.2917
     26 O         -5.796575   -3.397755   5.75349 O.3        1 UNL1     -0.5058
     27 O         -0.228973   -0.193611   2.541657 O.3        1 UNL1     -0.3648
     28 O         0.265618   -1.953374   -0.569741 O.3        1 UNL1     -0.3841
     29 O         -2.459981   0.354812   -0.262766 O.3        1 UNL1     -0.3863
     30 O         -2.446823   -3.318988   -0.206842 O.3        1 UNL1     -0.3829
     31 H         0.624492   -1.844885   1.818553 H        1 UNL1     0.0937
     32 H         0.0   0.0   0.0 H        1 UNL1     0.0671
     33 H         -1.866939   -1.197503   -1.412704 H        1 UNL1     0.0649
     34 H         -3.842492   -1.838169   0.060025 H        1 UNL1     0.0683
     35 H         -3.198784   -2.941838   2.153301 H        1 UNL1     0.1085
     36 H         -4.824846   -2.963565   3.435187 H        1 UNL1     0.0691
     37 H         -2.782075   0.689967   4.488275 H        1 UNL1     0.0691
     38 H         -3.338804   -1.008992   9.024376 H        1 UNL1     0.0385
     39 H         -4.901381   -0.59856   9.758162 H        1 UNL1     0.0385
     40 H         -3.673021   1.399141   8.825602 H        1 UNL1     0.0789
     41 H         -5.35482   1.938994   5.934662 H        1 UNL1     0.0623
     42 H         -7.489396   3.145819   5.71254 H        1 UNL1     0.0654
     43 H         -8.3897   2.335712   9.83353 H        1 UNL1     0.0654
     44 H         -6.306763   1.107081   10.073935 H        1 UNL1     0.0623
     45 H         -8.986513   4.445713   7.344748 H        1 UNL1     0.2921
     46 H         -5.394869   -3.911289   6.472049 H        1 UNL1     0.2922
     47 H         0.513361   0.360854   2.263504 H        1 UNL1     0.2126
     48 H         1.199364   -1.885457   -0.291824 H        1 UNL1     0.2101
     49 H         -2.019859   0.937446   -0.902003 H        1 UNL1     0.2100
     50 H         -2.679345   -3.332253   -1.158404 H        1 UNL1     0.2102
@<TRIPOS>BOND
     1     1     2    1
     2     1     6    1
     3     2     3    1
     4     3     4    1
     5     3    29    1
     6     3    33    1
     7     4     5    1
     8     5     6    1
     9     5     7    1
    10     5    35    1
    11     7     8    1
    12     8     9   ar
    13     8    13   ar
    14     9    10   ar
    15     9    36    1
    16    10    11   ar
    17    10    26    1
    18    11    12   ar
    19    11    14    1
    20    12    13   ar
    21    12    17    1
    22    13    37    1
    23    14    15    1
    24    14    25    2
    25    15    16    1
    26    15    38    1
    27    15    39    1
    28    16    17    1
    29    16    18    1
    30    16    40    1
    31    18    19   ar
    32    18    23   ar
    33    19    20   ar
    34    19    41    1
    35    20    21   ar
    36    20    42    1
    37    21    22   ar
    38    21    24    1
    39    22    23   ar
    40    22    43    1
    41    23    44    1
    42    24    45    1
    43    26    46    1
    44    27    47    1
    45    28    48    1
    46    29    49    1
    47    30    50    1
    48     1    31    1
    49     1    27    1
    50     2    32    1
    51     2    28    1
    52     4    34    1
    53     4    30    1
