@<TRIPOS>MOLECULE
*****
 50 53 0 0 0
SMALL
GASTEIGER

@<TRIPOS>ATOM
     1 C         -0.501577   -1.186589   1.763868 C.3        1 UNL1     0.1889
     2 C         -0.502944   -0.947476   0.229996 C.3        1 UNL1     0.1342
     3 C         -1.896261   -0.945241   -0.417405 C.3        1 UNL1     0.1174
     4 C         -2.860543   -1.931717   0.246028 C.3        1 UNL1     0.1456
     5 C         -2.831194   -1.842747   1.782773 C.3        1 UNL1     0.2326
     6 O         -1.504675   -2.062314   2.25712 O.3        1 UNL1     -0.3076
     7 O         -3.424288   -0.637135   2.298581 O.3        1 UNL1     -0.4605
     8 C         -4.038096   -0.743833   3.533646 C.ar        1 UNL1     0.1310
     9 C         -4.910265   -1.767476   3.919363 C.ar        1 UNL1     0.0226
     10 C         -5.469371   -1.796752   5.202502 C.ar        1 UNL1     0.1343
     11 C         -5.150847   -0.815032   6.139844 C.ar        1 UNL1     0.1007
     12 C         -4.313362   0.234662   5.753132 C.ar        1 UNL1     0.1389
     13 C         -3.7534   0.265306   4.462034 C.ar        1 UNL1     0.0229
     14 C         -5.646481   -0.843067   7.535449 C.2        1 UNL1     0.1740
     15 C         -5.029111   0.161026   8.463997 C.3        1 UNL1     0.0520
     16 C         -4.870959   1.476816   7.71457 C.3        1 UNL1     0.1322
     17 O         -4.019695   1.309858   6.559345 O.3        1 UNL1     -0.4828
     18 C         -6.196738   2.186146   7.428412 C.ar        1 UNL1     -0.0067
     19 C         -6.461704   2.660338   6.127202 C.ar        1 UNL1     -0.0516
     20 C         -7.643438   3.354924   5.842569 C.ar        1 UNL1     -0.0198
     21 C         -8.562723   3.58764   6.849836 C.ar        1 UNL1     0.1169
     22 C         -8.34549   3.104016   8.133486 C.ar        1 UNL1     -0.0198
     23 C         -7.172346   2.393363   8.414132 C.ar        1 UNL1     -0.0516
     24 O         -9.68456   4.300526   6.543771 O.3        1 UNL1     -0.5068
     25 O         -6.449207   -1.674452   7.95128 O.2        1 UNL1     -0.2917
     26 O         -6.313556   -2.821943   5.515424 O.3        1 UNL1     -0.5058
     27 O         -0.43193   0.010213   2.522551 O.3        1 UNL1     -0.3648
     28 O         0.258551   -1.99681   -0.395886 O.3        1 UNL1     -0.3841
     29 O         -2.421866   0.381903   -0.484932 O.3        1 UNL1     -0.3863
     30 O         -2.508491   -3.275824   -0.14783 O.3        1 UNL1     -0.3829
     31 H         0.432303   -1.709126   1.998181 H        1 UNL1     0.0937
     32 H         0.0   0.0   0.0 H        1 UNL1     0.0671
     33 H         -1.781232   -1.266996   -1.461897 H        1 UNL1     0.0649
     34 H         -3.881841   -1.751292   -0.10724 H        1 UNL1     0.0683
     35 H         -3.432625   -2.700525   2.10893 H        1 UNL1     0.1085
     36 H         -5.153368   -2.58983   3.255469 H        1 UNL1     0.0691
     37 H         -3.105239   1.094031   4.185273 H        1 UNL1     0.0691
     38 H         -4.057158   -0.233224   8.779276 H        1 UNL1     0.0385
     39 H         -5.661022   0.26408   9.352731 H        1 UNL1     0.0385
     40 H         -4.312647   2.15806   8.370858 H        1 UNL1     0.0789
     41 H         -5.751836   2.498485   5.32126 H        1 UNL1     0.0623
     42 H         -7.830775   3.725919   4.83794 H        1 UNL1     0.0654
     43 H         -9.065697   3.267548   8.926246 H        1 UNL1     0.0654
     44 H         -7.040201   2.020881   9.425388 H        1 UNL1     0.0623
     45 H         -9.414065   5.180404   6.234962 H        1 UNL1     0.2921
     46 H         -5.981666   -3.286301   6.300047 H        1 UNL1     0.2922
     47 H         0.345535   0.525098   2.26506 H        1 UNL1     0.2126
     48 H         1.167788   -1.929466   -0.045905 H        1 UNL1     0.2101
     49 H         -1.918029   0.904   -1.129413 H        1 UNL1     0.2100
     50 H         -2.666174   -3.358808   -1.111139 H        1 UNL1     0.2102
@<TRIPOS>BOND
     1     1     2    1
     2     1     6    1
     3     2     3    1
     4     3     4    1
     5     3    29    1
     6     3    33    1
     7     4     5    1
     8     5     6    1
     9     5     7    1
    10     5    35    1
    11     7     8    1
    12     8     9   ar
    13     8    13   ar
    14     9    10   ar
    15     9    36    1
    16    10    11   ar
    17    10    26    1
    18    11    12   ar
    19    11    14    1
    20    12    13   ar
    21    12    17    1
    22    13    37    1
    23    14    15    1
    24    14    25    2
    25    15    16    1
    26    15    38    1
    27    15    39    1
    28    16    17    1
    29    16    18    1
    30    16    40    1
    31    18    19   ar
    32    18    23   ar
    33    19    20   ar
    34    19    41    1
    35    20    21   ar
    36    20    42    1
    37    21    22   ar
    38    21    24    1
    39    22    23   ar
    40    22    43    1
    41    23    44    1
    42    24    45    1
    43    26    46    1
    44    27    47    1
    45    28    48    1
    46    29    49    1
    47    30    50    1
    48     1    31    1
    49     1    27    1
    50     2    32    1
    51     2    28    1
    52     4    34    1
    53     4    30    1
