@<TRIPOS>MOLECULE
*****
 50 53 0 0 0
SMALL
GASTEIGER

@<TRIPOS>ATOM
     1 C         -0.385754   -1.395787   1.635169 C.3        1 UNL1     0.1889
     2 C         -0.423684   -1.003079   0.133742 C.3        1 UNL1     0.1342
     3 C         -1.820158   -1.046498   -0.505352 C.3        1 UNL1     0.1174
     4 C         -2.69563   -2.16912   0.057131 C.3        1 UNL1     0.1456
     5 C         -2.655746   -2.234551   1.594821 C.3        1 UNL1     0.2326
     6 O         -1.310641   -2.394412   2.0398 O.3        1 UNL1     -0.3076
     7 O         -3.336446   -1.138805   2.23303 O.3        1 UNL1     -0.4605
     8 C         -3.925637   -1.419041   3.452804 C.ar        1 UNL1     0.1310
     9 C         -4.709542   -2.542965   3.734919 C.ar        1 UNL1     0.0226
     10 C         -5.249784   -2.746936   5.010237 C.ar        1 UNL1     0.1343
     11 C         -4.999215   -1.84314   6.041843 C.ar        1 UNL1     0.1007
     12 C         -4.251957   -0.696055   5.761516 C.ar        1 UNL1     0.1389
     13 C         -3.711062   -0.48985   4.478417 C.ar        1 UNL1     0.0229
     14 C         -5.474992   -2.052224   7.428952 C.2        1 UNL1     0.1740
     15 C         -4.928409   -1.101466   8.453088 C.3        1 UNL1     0.0520
     16 C         -4.883541   0.292013   7.841401 C.3        1 UNL1     0.1322
     17 O         -4.035073   0.311759   6.672306 O.3        1 UNL1     -0.4828
     18 C         -6.264513   0.918488   7.633633 C.ar        1 UNL1     -0.0067
     19 C         -6.581132   1.49962   6.388542 C.ar        1 UNL1     -0.0516
     20 C         -7.817337   2.122833   6.1803 C.ar        1 UNL1     -0.0198
     21 C         -8.740514   2.177877   7.209154 C.ar        1 UNL1     0.1169
     22 C         -8.470931   1.585359   8.435974 C.ar        1 UNL1     -0.0198
     23 C         -7.242063   0.945933   8.638639 C.ar        1 UNL1     -0.0516
     24 O         -9.918709   2.826198   6.981259 O.3        1 UNL1     -0.5068
     25 O         -6.20455   -2.983008   7.76042 O.2        1 UNL1     -0.2917
     26 O         -6.006509   -3.862769   5.219686 O.3        1 UNL1     -0.5058
     27 O         -0.402346   -0.280466   2.51185 O.3        1 UNL1     -0.3648
     28 O         0.41124   -1.919223   -0.598574 O.3        1 UNL1     -0.3841
     29 O         -2.449914   0.234371   -0.435244 O.3        1 UNL1     -0.3863
     30 O         -2.242834   -3.433844   -0.473095 O.3        1 UNL1     -0.3829
     31 H         0.589193   -1.863093   1.811757 H        1 UNL1     0.0937
     32 H         0.0   0.0   0.0 H        1 UNL1     0.0671
     33 H         -1.692038   -1.250333   -1.577619 H        1 UNL1     0.0649
     34 H         -3.732   -2.035969   -0.272427 H        1 UNL1     0.0683
     35 H         -3.183596   -3.166315   1.833712 H        1 UNL1     0.1085
     36 H         -4.894402   -3.310462   2.991349 H        1 UNL1     0.0691
     37 H         -3.133764   0.411825   4.285539 H        1 UNL1     0.0691
     38 H         -3.924735   -1.446737   8.723189 H        1 UNL1     0.0385
     39 H         -5.556232   -1.139997   9.349822 H        1 UNL1     0.0385
     40 H         -4.373398   0.945545   8.561936 H        1 UNL1     0.0789
     41 H         -5.869994   1.47767   5.5679 H        1 UNL1     0.0623
     42 H         -8.044995   2.577729   5.219439 H        1 UNL1     0.0654
     43 H         -9.192659   1.609485   9.24371 H        1 UNL1     0.0654
     44 H         -7.069226   0.484478   9.606126 H        1 UNL1     0.0623
     45 H         -9.722245   3.751499   6.762312 H        1 UNL1     0.2921
     46 H         -5.629303   -4.376893   5.950989 H        1 UNL1     0.2922
     47 H         0.32901   0.318292   2.305773 H        1 UNL1     0.2126
     48 H         1.316125   -1.815813   -0.246122 H        1 UNL1     0.2101
     49 H         -1.996432   0.857783   -1.02474 H        1 UNL1     0.2100
     50 H         -2.40452   -3.430945   -1.439305 H        1 UNL1     0.2102
@<TRIPOS>BOND
     1     1     2    1
     2     1     6    1
     3     2     3    1
     4     3     4    1
     5     3    29    1
     6     3    33    1
     7     4     5    1
     8     5     6    1
     9     5     7    1
    10     5    35    1
    11     7     8    1
    12     8     9   ar
    13     8    13   ar
    14     9    10   ar
    15     9    36    1
    16    10    11   ar
    17    10    26    1
    18    11    12   ar
    19    11    14    1
    20    12    13   ar
    21    12    17    1
    22    13    37    1
    23    14    15    1
    24    14    25    2
    25    15    16    1
    26    15    38    1
    27    15    39    1
    28    16    17    1
    29    16    18    1
    30    16    40    1
    31    18    19   ar
    32    18    23   ar
    33    19    20   ar
    34    19    41    1
    35    20    21   ar
    36    20    42    1
    37    21    22   ar
    38    21    24    1
    39    22    23   ar
    40    22    43    1
    41    23    44    1
    42    24    45    1
    43    26    46    1
    44    27    47    1
    45    28    48    1
    46    29    49    1
    47    30    50    1
    48     1    31    1
    49     1    27    1
    50     2    32    1
    51     2    28    1
    52     4    34    1
    53     4    30    1
