@<TRIPOS>MOLECULE
*****
 50 53 0 0 0
SMALL
GASTEIGER

@<TRIPOS>ATOM
     1 C         -1.000705   -0.775417   -1.779922 C.3        1 UNL1     0.1889
     2 C         -0.977589   0.088052   -0.490028 C.3        1 UNL1     0.1342
     3 C         -2.079667   -0.247894   0.526353 C.3        1 UNL1     0.1174
     4 C         -3.392335   -0.668955   -0.139025 C.3        1 UNL1     0.1456
     5 C         -3.179755   -1.695386   -1.266683 C.3        1 UNL1     0.2326
     6 O         -2.284844   -1.166834   -2.242713 O.3        1 UNL1     -0.3076
     7 O         -2.793451   -2.997658   -0.791103 O.3        1 UNL1     -0.4605
     8 C         -3.592255   -3.543513   0.197574 C.ar        1 UNL1     0.1310
     9 C         -3.380562   -3.413195   1.574347 C.ar        1 UNL1     0.0226
     10 C         -4.258461   -3.990624   2.499428 C.ar        1 UNL1     0.1343
     11 C         -5.383636   -4.692948   2.06982 C.ar        1 UNL1     0.1007
     12 C         -5.583222   -4.8647   0.697432 C.ar        1 UNL1     0.1389
     13 C         -4.698908   -4.286247   -0.232522 C.ar        1 UNL1     0.0229
     14 C         -6.389062   -5.251718   3.003119 C.2        1 UNL1     0.1740
     15 C         -7.642841   -5.77747   2.36816 C.3        1 UNL1     0.0520
     16 C         -7.263604   -6.514663   1.091178 C.3        1 UNL1     0.1322
     17 O         -6.596768   -5.627916   0.165932 O.3        1 UNL1     -0.4828
     18 C         -6.536168   -7.83873   1.336957 C.ar        1 UNL1     -0.0067
     19 C         -6.298227   -8.709622   0.253838 C.ar        1 UNL1     -0.0516
     20 C         -5.678003   -9.949056   0.451541 C.ar        1 UNL1     -0.0198
     21 C         -5.298505   -10.331494   1.725727 C.ar        1 UNL1     0.1169
     22 C         -5.489114   -9.481416   2.807335 C.ar        1 UNL1     -0.0198
     23 C         -6.092615   -8.234116   2.607124 C.ar        1 UNL1     -0.0516
     24 O         -4.731565   -11.561752   1.885239 O.3        1 UNL1     -0.5068
     25 O         -6.265603   -5.225616   4.224824 O.2        1 UNL1     -0.2917
     26 O         -3.994789   -3.827554   3.828138 O.3        1 UNL1     -0.5058
     27 O         -0.100857   -1.871624   -1.742637 O.3        1 UNL1     -0.3648
     28 O         -1.144607   1.468707   -0.862323 O.3        1 UNL1     -0.3841
     29 O         -1.613435   -1.201434   1.483182 O.3        1 UNL1     -0.3863
     30 O         -4.039907   0.498401   -0.690042 O.3        1 UNL1     -0.3829
     31 H         -0.619728   -0.141176   -2.587804 H        1 UNL1     0.0937
     32 H         0.0   0.0   0.0 H        1 UNL1     0.0671
     33 H         -2.293402   0.66312   1.102626 H        1 UNL1     0.0649
     34 H         -4.07287   -1.089727   0.609456 H        1 UNL1     0.0683
     35 H         -4.164504   -1.771025   -1.744623 H        1 UNL1     0.1085
     36 H         -2.55548   -2.832441   1.971946 H        1 UNL1     0.0691
     37 H         -4.875852   -4.435551   -1.295485 H        1 UNL1     0.0691
     38 H         -8.289294   -4.92017   2.152148 H        1 UNL1     0.0385
     39 H         -8.161985   -6.426033   3.082046 H        1 UNL1     0.0385
     40 H         -8.199383   -6.786912   0.584504 H        1 UNL1     0.0789
     41 H         -6.594947   -8.436523   -0.754638 H        1 UNL1     0.0623
     42 H         -5.510795   -10.616844   -0.389953 H        1 UNL1     0.0654
     43 H         -5.182122   -9.764594   3.807073 H        1 UNL1     0.0654
     44 H         -6.216374   -7.590951   3.473074 H        1 UNL1     0.0623
     45 H         -4.968626   -12.110246   1.119947 H        1 UNL1     0.2921
     46 H         -4.814996   -3.603667   4.29563 H        1 UNL1     0.2922
     47 H         -0.530966   -2.644696   -1.351196 H        1 UNL1     0.2126
     48 H         -0.320758   1.738809   -1.311823 H        1 UNL1     0.2101
     49 H         -0.643657   -1.187927   1.516977 H        1 UNL1     0.2100
     50 H         -3.529229   1.286447   -0.410929 H        1 UNL1     0.2102
@<TRIPOS>BOND
     1     1     2    1
     2     1     6    1
     3     2     3    1
     4     3     4    1
     5     3    29    1
     6     3    33    1
     7     4     5    1
     8     5     6    1
     9     5     7    1
    10     5    35    1
    11     7     8    1
    12     8     9   ar
    13     8    13   ar
    14     9    10   ar
    15     9    36    1
    16    10    11   ar
    17    10    26    1
    18    11    12   ar
    19    11    14    1
    20    12    13   ar
    21    12    17    1
    22    13    37    1
    23    14    15    1
    24    14    25    2
    25    15    16    1
    26    15    38    1
    27    15    39    1
    28    16    17    1
    29    16    18    1
    30    16    40    1
    31    18    19   ar
    32    18    23   ar
    33    19    20   ar
    34    19    41    1
    35    20    21   ar
    36    20    42    1
    37    21    22   ar
    38    21    24    1
    39    22    23   ar
    40    22    43    1
    41    23    44    1
    42    24    45    1
    43    26    46    1
    44    27    47    1
    45    28    48    1
    46    29    49    1
    47    30    50    1
    48     1    31    1
    49     1    27    1
    50     2    32    1
    51     2    28    1
    52     4    34    1
    53     4    30    1
