@<TRIPOS>MOLECULE
*****
 50 53 0 0 0
SMALL
GASTEIGER

@<TRIPOS>ATOM
     1 C         -2.090467   0.259237   -0.577537 C.3        1 UNL1     0.1889
     2 C         -0.573929   0.224949   -0.907505 C.3        1 UNL1     0.1342
     3 C         -0.026096   1.513279   -1.540396 C.3        1 UNL1     0.1174
     4 C         -1.037235   2.197375   -2.463829 C.3        1 UNL1     0.1456
     5 C         -2.438002   2.299066   -1.833057 C.3        1 UNL1     0.2326
     6 O         -2.904815   1.000598   -1.473983 O.3        1 UNL1     -0.3076
     7 O         -2.512439   3.246139   -0.751931 O.3        1 UNL1     -0.4605
     8 C         -3.747756   3.83289   -0.543985 C.ar        1 UNL1     0.1310
     9 C         -4.751276   3.333804   0.293369 C.ar        1 UNL1     0.0226
     10 C         -5.965783   4.011992   0.451277 C.ar        1 UNL1     0.1343
     11 C         -6.197171   5.219277   -0.206569 C.ar        1 UNL1     0.1007
     12 C         -5.218825   5.706635   -1.077262 C.ar        1 UNL1     0.1389
     13 C         -3.998782   5.023174   -1.237909 C.ar        1 UNL1     0.0229
     14 C         -7.427974   6.019927   -0.011024 C.2        1 UNL1     0.1740
     15 C         -7.413662   7.391647   -0.619077 C.3        1 UNL1     0.0520
     16 C         -6.741807   7.307204   -1.982689 C.3        1 UNL1     0.1322
     17 O         -5.384849   6.827703   -1.856947 O.3        1 UNL1     -0.4828
     18 C         -7.577369   6.577337   -3.037134 C.ar        1 UNL1     -0.0067
     19 C         -7.36763   5.200163   -3.255346 C.ar        1 UNL1     -0.0516
     20 C         -8.081139   4.512764   -4.244461 C.ar        1 UNL1     -0.0198
     21 C         -8.999777   5.191275   -5.025201 C.ar        1 UNL1     0.1169
     22 C         -9.252538   6.540118   -4.811726 C.ar        1 UNL1     -0.0198
     23 C         -8.552504   7.22363   -3.810316 C.ar        1 UNL1     -0.0516
     24 O         -9.648251   4.497117   -6.003989 O.3        1 UNL1     -0.5068
     25 O         -8.379606   5.642202   0.667361 O.2        1 UNL1     -0.2917
     26 O         -6.903626   3.471378   1.281803 O.3        1 UNL1     -0.5058
     27 O         -2.367548   0.586873   0.774745 O.3        1 UNL1     -0.3648
     28 O         -0.334029   -0.845782   -1.839539 O.3        1 UNL1     -0.3841
     29 O         0.489931   2.391077   -0.53774 O.3        1 UNL1     -0.3863
     30 O         -1.135955   1.449283   -3.695212 O.3        1 UNL1     -0.3829
     31 H         -2.457717   -0.767026   -0.68704 H        1 UNL1     0.0937
     32 H         0.0   0.0   0.0 H        1 UNL1     0.0671
     33 H         0.838072   1.240339   -2.162036 H        1 UNL1     0.0649
     34 H         -0.684899   3.201144   -2.72595 H        1 UNL1     0.0683
     35 H         -3.073606   2.650352   -2.655545 H        1 UNL1     0.1085
     36 H         -4.610868   2.429556   0.875385 H        1 UNL1     0.0691
     37 H         -3.253824   5.422904   -1.922561 H        1 UNL1     0.0691
     38 H         -6.854637   8.047649   0.056703 H        1 UNL1     0.0385
     39 H         -8.441129   7.765265   -0.686161 H        1 UNL1     0.0385
     40 H         -6.636368   8.334917   -2.355797 H        1 UNL1     0.0789
     41 H         -6.645505   4.646937   -2.661943 H        1 UNL1     0.0623
     42 H         -7.901839   3.453469   -4.411069 H        1 UNL1     0.0654
     43 H         -9.980643   7.077758   -5.407306 H        1 UNL1     0.0654
     44 H         -8.78289   8.274515   -3.664001 H        1 UNL1     0.0623
     45 H         -8.998995   3.946763   -6.471209 H        1 UNL1     0.2921
     46 H         -6.666163   2.552447   1.483268 H        1 UNL1     0.2922
     47 H         -3.003792   1.314236   0.819416 H        1 UNL1     0.2126
     48 H         -0.46166   -1.679287   -1.34688 H        1 UNL1     0.2101
     49 H         -0.172101   3.065483   -0.317094 H        1 UNL1     0.2100
     50 H         -1.96018   0.920848   -3.661711 H        1 UNL1     0.2102
@<TRIPOS>BOND
     1     1     2    1
     2     1     6    1
     3     2     3    1
     4     3     4    1
     5     3    29    1
     6     3    33    1
     7     4     5    1
     8     5     6    1
     9     5     7    1
    10     5    35    1
    11     7     8    1
    12     8     9   ar
    13     8    13   ar
    14     9    10   ar
    15     9    36    1
    16    10    11   ar
    17    10    26    1
    18    11    12   ar
    19    11    14    1
    20    12    13   ar
    21    12    17    1
    22    13    37    1
    23    14    15    1
    24    14    25    2
    25    15    16    1
    26    15    38    1
    27    15    39    1
    28    16    17    1
    29    16    18    1
    30    16    40    1
    31    18    19   ar
    32    18    23   ar
    33    19    20   ar
    34    19    41    1
    35    20    21   ar
    36    20    42    1
    37    21    22   ar
    38    21    24    1
    39    22    23   ar
    40    22    43    1
    41    23    44    1
    42    24    45    1
    43    26    46    1
    44    27    47    1
    45    28    48    1
    46    29    49    1
    47    30    50    1
    48     1    31    1
    49     1    27    1
    50     2    32    1
    51     2    28    1
    52     4    34    1
    53     4    30    1
