@<TRIPOS>MOLECULE
*****
 50 53 0 0 0
SMALL
GASTEIGER

@<TRIPOS>ATOM
     1 C         -0.53376   -1.25786   1.704022 C.3        1 UNL1     0.1889
     2 C         -0.524971   -0.945699   0.183359 C.3        1 UNL1     0.1342
     3 C         -1.915872   -0.880797   -0.465985 C.3        1 UNL1     0.1174
     4 C         -2.904284   -1.875669   0.14752 C.3        1 UNL1     0.1456
     5 C         -2.877681   -1.860983   1.686818 C.3        1 UNL1     0.2326
     6 O         -1.557944   -2.133115   2.152767 O.3        1 UNL1     -0.3076
     7 O         -3.444924   -0.668231   2.25857 O.3        1 UNL1     -0.4605
     8 C         -4.075116   -0.82212   3.480332 C.ar        1 UNL1     0.1310
     9 C         -4.975267   -1.842729   3.804963 C.ar        1 UNL1     0.0226
     10 C         -5.54952   -1.923035   5.079203 C.ar        1 UNL1     0.1343
     11 C         -5.218912   -0.997493   6.068097 C.ar        1 UNL1     0.1007
     12 C         -4.352815   0.050005   5.743433 C.ar        1 UNL1     0.1389
     13 C         -3.777583   0.132056   4.461322 C.ar        1 UNL1     0.0229
     14 C         -5.730969   -1.083719   7.455366 C.2        1 UNL1     0.1740
     15 C         -5.100995   -0.14253   8.439665 C.3        1 UNL1     0.0520
     16 C         -4.903653   1.205075   7.759243 C.3        1 UNL1     0.1322
     17 O         -4.043379   1.076056   6.605834 O.3        1 UNL1     -0.4828
     18 C         -6.209176   1.959315   7.495693 C.ar        1 UNL1     -0.0067
     19 C         -6.487346   3.136443   8.220403 C.ar        1 UNL1     -0.0516
     20 C         -7.692982   3.824287   8.037987 C.ar        1 UNL1     -0.0198
     21 C         -8.629637   3.342266   7.141237 C.ar        1 UNL1     0.1169
     22 C         -8.370394   2.204278   6.388498 C.ar        1 UNL1     -0.0198
     23 C         -7.157038   1.52653   6.557264 C.ar        1 UNL1     -0.0516
     24 O         -9.808191   4.017696   7.017935 O.3        1 UNL1     -0.5068
     25 O         -6.557561   -1.915537   7.820482 O.2        1 UNL1     -0.2917
     26 O         -6.420901   -2.942203   5.331344 O.3        1 UNL1     -0.5058
     27 O         -0.439385   -0.100604   2.519276 O.3        1 UNL1     -0.3648
     28 O         0.214507   -1.98096   -0.490519 O.3        1 UNL1     -0.3841
     29 O         -2.41109   0.459676   -0.470945 O.3        1 UNL1     -0.3863
     30 O         -2.581533   -3.207068   -0.309536 O.3        1 UNL1     -0.3829
     31 H         0.387323   -1.812123   1.91492 H        1 UNL1     0.0937
     32 H         0.0   0.0   0.0 H        1 UNL1     0.0671
     33 H         -1.804928   -1.154768   -1.524452 H        1 UNL1     0.0649
     34 H         -3.920139   -1.65536   -0.198751 H        1 UNL1     0.0683
     35 H         -3.49938   -2.719466   1.970325 H        1 UNL1     0.1085
     36 H         -5.229885   -2.624681   3.097967 H        1 UNL1     0.0691
     37 H         -3.107155   0.957925   4.233376 H        1 UNL1     0.0691
     38 H         -4.142164   -0.575195   8.744575 H        1 UNL1     0.0385
     39 H         -5.740438   -0.069171   9.325955 H        1 UNL1     0.0385
     40 H         -4.337137   1.838993   8.454748 H        1 UNL1     0.0789
     41 H         -5.772342   3.530191   8.936909 H        1 UNL1     0.0623
     42 H         -7.900837   4.724249   8.611465 H        1 UNL1     0.0654
     43 H         -9.090556   1.826547   5.67254 H        1 UNL1     0.0654
     44 H         -6.983379   0.646903   5.944937 H        1 UNL1     0.0623
     45 H         -9.760211   4.576   6.225021 H        1 UNL1     0.2921
     46 H         -6.285309   -3.267598   6.235304 H        1 UNL1     0.2922
     47 H         0.422529   0.322574   2.401448 H        1 UNL1     0.2126
     48 H         -0.115488   -2.007577   -1.409283 H        1 UNL1     0.2101
     49 H         -3.017084   0.590377   0.275703 H        1 UNL1     0.2100
     50 H         -1.658896   -3.401662   -0.043853 H        1 UNL1     0.2102
@<TRIPOS>BOND
     1     1     2    1
     2     1     6    1
     3     2     3    1
     4     3     4    1
     5     3    29    1
     6     3    33    1
     7     4     5    1
     8     5     6    1
     9     5     7    1
    10     5    35    1
    11     7     8    1
    12     8     9   ar
    13     8    13   ar
    14     9    10   ar
    15     9    36    1
    16    10    11   ar
    17    10    26    1
    18    11    12   ar
    19    11    14    1
    20    12    13   ar
    21    12    17    1
    22    13    37    1
    23    14    15    1
    24    14    25    2
    25    15    16    1
    26    15    38    1
    27    15    39    1
    28    16    17    1
    29    16    18    1
    30    16    40    1
    31    18    19   ar
    32    18    23   ar
    33    19    20   ar
    34    19    41    1
    35    20    21   ar
    36    20    42    1
    37    21    22   ar
    38    21    24    1
    39    22    23   ar
    40    22    43    1
    41    23    44    1
    42    24    45    1
    43    26    46    1
    44    27    47    1
    45    28    48    1
    46    29    49    1
    47    30    50    1
    48     1    31    1
    49     1    27    1
    50     2    32    1
    51     2    28    1
    52     4    34    1
    53     4    30    1
