@<TRIPOS>MOLECULE
*****
 50 53 0 0 0
SMALL
GASTEIGER

@<TRIPOS>ATOM
     1 C         -0.291371   -1.30806   1.724786 C.3        1 UNL1     0.1889
     2 C         -0.440673   -0.981512   0.214483 C.3        1 UNL1     0.1342
     3 C         -1.885512   -1.006937   -0.307303 C.3        1 UNL1     0.1174
     4 C         -2.74463   -2.073728   0.376065 C.3        1 UNL1     0.1456
     5 C         -2.580762   -2.071955   1.906917 C.3        1 UNL1     0.2326
     6 O         -1.209002   -2.25643   2.249136 O.3        1 UNL1     -0.3076
     7 O         -3.174255   -0.926897   2.545611 O.3        1 UNL1     -0.4605
     8 C         -3.669465   -1.132857   3.82071 C.ar        1 UNL1     0.1310
     9 C         -4.460387   -2.216465   4.217618 C.ar        1 UNL1     0.0226
     10 C         -4.900032   -2.345432   5.540487 C.ar        1 UNL1     0.1343
     11 C         -4.539203   -1.405444   6.504886 C.ar        1 UNL1     0.1007
     12 C         -3.783959   -0.297413   6.111619 C.ar        1 UNL1     0.1389
     13 C         -3.344235   -0.166585   4.780846 C.ar        1 UNL1     0.0229
     14 C         -4.905615   -1.536681   7.934107 C.2        1 UNL1     0.1740
     15 C         -4.249124   -0.559963   8.865017 C.3        1 UNL1     0.0520
     16 C         -4.213503   0.802656   8.186815 C.3        1 UNL1     0.1322
     17 O         -3.463526   0.742175   6.953549 O.3        1 UNL1     -0.4828
     18 C         -5.587794   1.464772   8.061706 C.ar        1 UNL1     -0.0067
     19 C         -5.988156   2.000113   6.820201 C.ar        1 UNL1     -0.0516
     20 C         -7.218365   2.654144   6.683114 C.ar        1 UNL1     -0.0198
     21 C         -8.052061   2.78554   7.77925 C.ar        1 UNL1     0.1169
     22 C         -7.700389   2.239579   9.006887 C.ar        1 UNL1     -0.0198
     23 C         -6.478424   1.569355   9.139775 C.ar        1 UNL1     -0.0516
     24 O         -9.225351   3.46184   7.61674 O.3        1 UNL1     -0.5068
     25 O         -5.632658   -2.427055   8.366688 O.2        1 UNL1     -0.2917
     26 O         -5.669597   -3.425097   5.862476 O.3        1 UNL1     -0.5058
     27 O         -0.203153   -0.154896   2.546501 O.3        1 UNL1     -0.3648
     28 O         0.304036   -1.956554   -0.538782 O.3        1 UNL1     -0.3841
     29 O         -2.469374   0.295986   -0.247046 O.3        1 UNL1     -0.3863
     30 O         -2.374302   -3.37513   -0.12881 O.3        1 UNL1     -0.3829
     31 H         0.680572   -1.799159   1.844065 H        1 UNL1     0.0937
     32 H         0.0   0.0   0.0 H        1 UNL1     0.0671
     33 H         -1.851796   -1.262427   -1.375623 H        1 UNL1     0.0649
     34 H         -3.800153   -1.921037   0.125154 H        1 UNL1     0.0683
     35 H         -3.114483   -2.974125   2.231124 H        1 UNL1     0.1085
     36 H         -4.728126   -3.009729   3.528293 H        1 UNL1     0.0691
     37 H         -2.758368   0.705949   4.499885 H        1 UNL1     0.0691
     38 H         -3.2373   -0.926008   9.069345 H        1 UNL1     0.0385
     39 H         -4.802179   -0.537684   9.810222 H        1 UNL1     0.0385
     40 H         -3.626967   1.470306   8.832368 H        1 UNL1     0.0789
     41 H         -5.347648   1.918067   5.946892 H        1 UNL1     0.0623
     42 H         -7.510523   3.073139   5.723375 H        1 UNL1     0.0654
     43 H         -8.352441   2.323576   9.868097 H        1 UNL1     0.0654
     44 H         -6.240528   1.145927   10.110836 H        1 UNL1     0.0623
     45 H         -9.020323   4.369346   7.339047 H        1 UNL1     0.2921
     46 H         -5.248937   -3.918507   6.584283 H        1 UNL1     0.2922
     47 H         0.526175   0.409484   2.254242 H        1 UNL1     0.2126
     48 H         1.237424   -1.867664   -0.265616 H        1 UNL1     0.2101
     49 H         -2.047511   0.87717   -0.899771 H        1 UNL1     0.2100
     50 H         -2.614501   -3.409864   -1.07792 H        1 UNL1     0.2102
@<TRIPOS>BOND
     1     1     2    1
     2     1     6    1
     3     2     3    1
     4     3     4    1
     5     3    29    1
     6     3    33    1
     7     4     5    1
     8     5     6    1
     9     5     7    1
    10     5    35    1
    11     7     8    1
    12     8     9   ar
    13     8    13   ar
    14     9    10   ar
    15     9    36    1
    16    10    11   ar
    17    10    26    1
    18    11    12   ar
    19    11    14    1
    20    12    13   ar
    21    12    17    1
    22    13    37    1
    23    14    15    1
    24    14    25    2
    25    15    16    1
    26    15    38    1
    27    15    39    1
    28    16    17    1
    29    16    18    1
    30    16    40    1
    31    18    19   ar
    32    18    23   ar
    33    19    20   ar
    34    19    41    1
    35    20    21   ar
    36    20    42    1
    37    21    22   ar
    38    21    24    1
    39    22    23   ar
    40    22    43    1
    41    23    44    1
    42    24    45    1
    43    26    46    1
    44    27    47    1
    45    28    48    1
    46    29    49    1
    47    30    50    1
    48     1    31    1
    49     1    27    1
    50     2    32    1
    51     2    28    1
    52     4    34    1
    53     4    30    1
