@<TRIPOS>MOLECULE
*****
 50 53 0 0 0
SMALL
GASTEIGER

@<TRIPOS>ATOM
     1 C         -0.351117   -1.336759   1.69133 C.3        1 UNL1     0.1889
     2 C         -0.472628   -0.972174   0.187251 C.3        1 UNL1     0.1342
     3 C         -1.911309   -0.941907   -0.351032 C.3        1 UNL1     0.1174
     4 C         -2.810278   -1.997018   0.298362 C.3        1 UNL1     0.1456
     5 C         -2.664533   -2.03442   1.83059 C.3        1 UNL1     0.2326
     6 O         -1.303113   -2.2682   2.18379 O.3        1 UNL1     -0.3076
     7 O         -3.230668   -0.886357   2.488438 O.3        1 UNL1     -0.4605
     8 C         -3.746908   -1.105552   3.752945 C.ar        1 UNL1     0.1310
     9 C         -4.574841   -2.173149   4.116348 C.ar        1 UNL1     0.0226
     10 C         -5.033783   -2.318165   5.430975 C.ar        1 UNL1     0.1343
     11 C         -4.656143   -1.411375   6.420399 C.ar        1 UNL1     0.1007
     12 C         -3.863175   -0.318366   6.060793 C.ar        1 UNL1     0.1389
     13 C         -3.404004   -0.171315   4.738307 C.ar        1 UNL1     0.0229
     14 C         -5.043216   -1.563265   7.842109 C.2        1 UNL1     0.1740
     15 C         -4.368565   -0.628032   8.802179 C.3        1 UNL1     0.0520
     16 C         -4.283783   0.747672   8.155489 C.3        1 UNL1     0.1322
     17 O         -3.521453   0.691919   6.929596 O.3        1 UNL1     -0.4828
     18 C         -5.635868   1.453982   8.030132 C.ar        1 UNL1     -0.0067
     19 C         -6.005176   2.02886   6.796705 C.ar        1 UNL1     -0.0516
     20 C         -7.213358   2.722968   6.660795 C.ar        1 UNL1     -0.0198
     21 C         -8.0556   2.855198   7.750278 C.ar        1 UNL1     0.1169
     22 C         -7.735114   2.271501   8.969058 C.ar        1 UNL1     -0.0198
     23 C         -6.535611   1.561556   9.100312 C.ar        1 UNL1     -0.0516
     24 O         -9.20592   3.570392   7.590092 O.3        1 UNL1     -0.5068
     25 O         -5.801888   -2.44051   8.246267 O.2        1 UNL1     -0.2917
     26 O         -5.839366   -3.380801   5.719811 O.3        1 UNL1     -0.5058
     27 O         -0.237818   -0.205453   2.539914 O.3        1 UNL1     -0.3648
     28 O         0.251134   -1.952391   -0.579591 O.3        1 UNL1     -0.3841
     29 O         -2.456213   0.37653   -0.26775 O.3        1 UNL1     -0.3863
     30 O         -2.473495   -3.297503   -0.231739 O.3        1 UNL1     -0.3829
     31 H         0.604069   -1.859785   1.810256 H        1 UNL1     0.0937
     32 H         0.0   0.0   0.0 H        1 UNL1     0.0671
     33 H         -1.872704   -1.174389   -1.424429 H        1 UNL1     0.0649
     34 H         -3.857668   -1.806674   0.03924 H        1 UNL1     0.0683
     35 H         -3.229059   -2.926923   2.128294 H        1 UNL1     0.1085
     36 H         -4.858258   -2.942298   3.406274 H        1 UNL1     0.0691
     37 H         -2.788766   0.689018   4.483744 H        1 UNL1     0.0691
     38 H         -3.370746   -1.029207   9.009407 H        1 UNL1     0.0385
     39 H         -4.931826   -0.610022   9.74143 H        1 UNL1     0.0385
     40 H         -3.685013   1.38256   8.822506 H        1 UNL1     0.0789
     41 H         -5.357164   1.946855   5.928946 H        1 UNL1     0.0623
     42 H         -7.481364   3.171994   5.707611 H        1 UNL1     0.0654
     43 H         -8.394462   2.356076   9.824638 H        1 UNL1     0.0654
     44 H         -6.322107   1.1095   10.06411 H        1 UNL1     0.0623
     45 H         -8.970271   4.477482   7.336371 H        1 UNL1     0.2921
     46 H         -5.442963   -3.902112   6.43571 H        1 UNL1     0.2922
     47 H         0.511525   0.342918   2.268561 H        1 UNL1     0.2126
     48 H         1.183615   -1.897613   -0.294613 H        1 UNL1     0.2101
     49 H         -2.00936   0.958999   -0.902452 H        1 UNL1     0.2100
     50 H         -2.703401   -3.303702   -1.184009 H        1 UNL1     0.2102
@<TRIPOS>BOND
     1     1     2    1
     2     1     6    1
     3     2     3    1
     4     3     4    1
     5     3    29    1
     6     3    33    1
     7     4     5    1
     8     5     6    1
     9     5     7    1
    10     5    35    1
    11     7     8    1
    12     8     9   ar
    13     8    13   ar
    14     9    10   ar
    15     9    36    1
    16    10    11   ar
    17    10    26    1
    18    11    12   ar
    19    11    14    1
    20    12    13   ar
    21    12    17    1
    22    13    37    1
    23    14    15    1
    24    14    25    2
    25    15    16    1
    26    15    38    1
    27    15    39    1
    28    16    17    1
    29    16    18    1
    30    16    40    1
    31    18    19   ar
    32    18    23   ar
    33    19    20   ar
    34    19    41    1
    35    20    21   ar
    36    20    42    1
    37    21    22   ar
    38    21    24    1
    39    22    23   ar
    40    22    43    1
    41    23    44    1
    42    24    45    1
    43    26    46    1
    44    27    47    1
    45    28    48    1
    46    29    49    1
    47    30    50    1
    48     1    31    1
    49     1    27    1
    50     2    32    1
    51     2    28    1
    52     4    34    1
    53     4    30    1
