@<TRIPOS>MOLECULE
*****
 50 53 0 0 0
SMALL
GASTEIGER

@<TRIPOS>ATOM
     1 C         -0.232847   -1.19602   1.812767 C.3        1 UNL1     0.1889
     2 C         -0.531842   -0.905522   0.317389 C.3        1 UNL1     0.1342
     3 C         -2.022958   -0.755454   -0.021013 C.3        1 UNL1     0.1174
     4 C         -2.916966   -1.672961   0.81687 C.3        1 UNL1     0.1456
     5 C         -2.558834   -1.639531   2.313864 C.3        1 UNL1     0.2326
     6 O         -1.189622   -1.993979   2.494117 O.3        1 UNL1     -0.3076
     7 O         -2.913275   -0.403634   2.960588 O.3        1 UNL1     -0.4605
     8 C         -3.270547   -0.497723   4.293641 C.ar        1 UNL1     0.1310
     9 C         -4.142305   -1.449381   4.83372 C.ar        1 UNL1     0.0226
     10 C         -4.428908   -1.473253   6.203826 C.ar        1 UNL1     0.1343
     11 C         -3.831556   -0.560008   7.071579 C.ar        1 UNL1     0.1007
     12 C         -2.991229   0.420825   6.5381 C.ar        1 UNL1     0.1389
     13 C         -2.705276   0.446268   5.160052 C.ar        1 UNL1     0.0229
     14 C         -4.033333   -0.592617   8.538677 C.2        1 UNL1     0.1740
     15 C         -3.144447   0.315488   9.33666 C.3        1 UNL1     0.0520
     16 C         -3.01352   1.637282   8.592567 C.3        1 UNL1     0.1322
     17 O         -2.435574   1.43415   7.284214 O.3        1 UNL1     -0.4828
     18 C         -4.293555   2.476456   8.597293 C.ar        1 UNL1     -0.0067
     19 C         -4.760014   3.034888   7.389493 C.ar        1 UNL1     -0.0516
     20 C         -5.900642   3.846311   7.366581 C.ar        1 UNL1     -0.0198
     21 C         -6.577876   4.112236   8.543214 C.ar        1 UNL1     0.1169
     22 C         -6.162352   3.549581   9.743046 C.ar        1 UNL1     -0.0198
     23 C         -5.032463   2.723145   9.763292 C.ar        1 UNL1     -0.0516
     24 O         -7.662452   4.937485   8.487913 O.3        1 UNL1     -0.5068
     25 O         -4.812432   -1.360509   9.097097 O.2        1 UNL1     -0.2917
     26 O         -5.288361   -2.426403   6.666893 O.3        1 UNL1     -0.5058
     27 O         0.10764   -0.036993   2.556751 O.3        1 UNL1     -0.3648
     28 O         -0.02159   -1.997308   -0.470235 O.3        1 UNL1     -0.3841
     29 O         -2.421998   0.615236   0.043091 O.3        1 UNL1     -0.3863
     30 O         -2.784858   -3.029119   0.338253 O.3        1 UNL1     -0.3829
     31 H         0.675166   -1.808395   1.837004 H        1 UNL1     0.0937
     32 H         0.0   0.0   0.0 H        1 UNL1     0.0671
     33 H         -2.159933   -1.050421   -1.070752 H        1 UNL1     0.0649
     34 H         -3.967554   -1.38915   0.68992 H        1 UNL1     0.0683
     35 H         -3.15788   -2.450168   2.747326 H        1 UNL1     0.1085
     36 H         -4.594922   -2.220981   4.22062 H        1 UNL1     0.0691
     37 H         -2.04873   1.220799   4.769486 H        1 UNL1     0.0691
     38 H         -2.172222   -0.178411   9.438488 H        1 UNL1     0.0385
     39 H         -3.569178   0.444366   10.338045 H        1 UNL1     0.0385
     40 H         -2.269248   2.239511   9.130989 H        1 UNL1     0.0789
     41 H         -4.240807   2.848655   6.453869 H        1 UNL1     0.0623
     42 H         -6.243484   4.280762   6.43078 H        1 UNL1     0.0654
     43 H         -6.694061   3.739055   10.667868 H        1 UNL1     0.0654
     44 H         -4.742325   2.291881   10.716537 H        1 UNL1     0.0623
     45 H         -7.371081   5.805703   8.165394 H        1 UNL1     0.2921
     46 H         -4.851576   -2.946839   7.359553 H        1 UNL1     0.2922
     47 H         0.853483   0.419397   2.142886 H        1 UNL1     0.2126
     48 H         0.945461   -2.011844   -0.334836 H        1 UNL1     0.2101
     49 H         -2.02327   1.109688   -0.690617 H        1 UNL1     0.2100
     50 H         -3.152669   -3.065844   -0.568983 H        1 UNL1     0.2102
@<TRIPOS>BOND
     1     1     2    1
     2     1     6    1
     3     2     3    1
     4     3     4    1
     5     3    29    1
     6     3    33    1
     7     4     5    1
     8     5     6    1
     9     5     7    1
    10     5    35    1
    11     7     8    1
    12     8     9   ar
    13     8    13   ar
    14     9    10   ar
    15     9    36    1
    16    10    11   ar
    17    10    26    1
    18    11    12   ar
    19    11    14    1
    20    12    13   ar
    21    12    17    1
    22    13    37    1
    23    14    15    1
    24    14    25    2
    25    15    16    1
    26    15    38    1
    27    15    39    1
    28    16    17    1
    29    16    18    1
    30    16    40    1
    31    18    19   ar
    32    18    23   ar
    33    19    20   ar
    34    19    41    1
    35    20    21   ar
    36    20    42    1
    37    21    22   ar
    38    21    24    1
    39    22    23   ar
    40    22    43    1
    41    23    44    1
    42    24    45    1
    43    26    46    1
    44    27    47    1
    45    28    48    1
    46    29    49    1
    47    30    50    1
    48     1    31    1
    49     1    27    1
    50     2    32    1
    51     2    28    1
    52     4    34    1
    53     4    30    1
