@<TRIPOS>MOLECULE
*****
 50 53 0 0 0
SMALL
GASTEIGER

@<TRIPOS>ATOM
     1 C         -0.336924   -1.331153   1.698622 C.3        1 UNL1     0.1889
     2 C         -0.46491   -0.974743   0.193122 C.3        1 UNL1     0.1342
     3 C         -1.905119   -0.957764   -0.341645 C.3        1 UNL1     0.1174
     4 C         -2.794584   -2.016379   0.315094 C.3        1 UNL1     0.1456
     5 C         -2.644729   -2.045302   1.847109 C.3        1 UNL1     0.2326
     6 O         -1.280726   -2.267254   2.19797 O.3        1 UNL1     -0.3076
     7 O         -3.217743   -0.898315   2.500865 O.3        1 UNL1     -0.4605
     8 C         -3.729595   -1.115339   3.767529 C.ar        1 UNL1     0.1310
     9 C         -4.548948   -2.187205   4.137748 C.ar        1 UNL1     0.0226
     10 C         -5.003933   -2.329403   5.454057 C.ar        1 UNL1     0.1343
     11 C         -4.630717   -1.415283   6.438402 C.ar        1 UNL1     0.1007
     12 C         -3.846503   -0.318242   6.071941 C.ar        1 UNL1     0.1389
     13 C         -3.391322   -0.174045   4.747762 C.ar        1 UNL1     0.0229
     14 C         -5.013549   -1.563333   7.861664 C.2        1 UNL1     0.1740
     15 C         -4.343602   -0.618754   8.81586 C.3        1 UNL1     0.0520
     16 C         -4.270239   0.754492   8.162584 C.3        1 UNL1     0.1322
     17 O         -3.510222   0.698544   6.935264 O.3        1 UNL1     -0.4828
     18 C         -5.627694   1.45038   8.036958 C.ar        1 UNL1     -0.0067
     19 C         -6.002695   2.019243   6.80246 C.ar        1 UNL1     -0.0516
     20 C         -7.216171   2.703973   6.666145 C.ar        1 UNL1     -0.0198
     21 C         -8.058119   2.832794   7.756263 C.ar        1 UNL1     0.1169
     22 C         -7.731889   2.254711   8.976194 C.ar        1 UNL1     -0.0198
     23 C         -6.526979   1.554067   9.107905 C.ar        1 UNL1     -0.0516
     24 O         -9.21392   3.538977   7.595549 O.3        1 UNL1     -0.5068
     25 O         -5.764936   -2.444161   8.271595 O.2        1 UNL1     -0.2917
     26 O         -5.801136   -3.396495   5.749636 O.3        1 UNL1     -0.5058
     27 O         -0.229923   -0.194954   2.541468 O.3        1 UNL1     -0.3648
     28 O         0.264204   -1.953246   -0.570835 O.3        1 UNL1     -0.3841
     29 O         -2.459609   0.356975   -0.263319 O.3        1 UNL1     -0.3863
     30 O         -2.449461   -3.316868   -0.209603 O.3        1 UNL1     -0.3829
     31 H         0.622422   -1.846488   1.817636 H        1 UNL1     0.0937
     32 H         0.0   0.0   0.0 H        1 UNL1     0.0671
     33 H         -1.867473   -1.19513   -1.414007 H        1 UNL1     0.0649
     34 H         -3.844007   -1.835073   0.057721 H        1 UNL1     0.0683
     35 H         -3.201851   -2.940527   2.150532 H        1 UNL1     0.1085
     36 H         -4.82833   -2.9617   3.431898 H        1 UNL1     0.0691
     37 H         -2.782913   0.68953   4.487823 H        1 UNL1     0.0691
     38 H         -3.342441   -1.011705   9.022726 H        1 UNL1     0.0385
     39 H         -4.904912   -0.600442   9.756272 H        1 UNL1     0.0385
     40 H         -3.674634   1.396819   8.825298 H        1 UNL1     0.0789
     41 H         -5.35509   1.939783   5.934161 H        1 UNL1     0.0623
     42 H         -7.488613   3.14848   5.7121 H        1 UNL1     0.0654
     43 H         -8.390863   2.336625   9.832321 H        1 UNL1     0.0654
     44 H         -6.309003   1.106153   10.072635 H        1 UNL1     0.0623
     45 H         -8.98518   4.44861   7.344625 H        1 UNL1     0.2921
     46 H         -5.400073   -3.910788   6.468011 H        1 UNL1     0.2922
     47 H         0.512949   0.359072   2.263881 H        1 UNL1     0.2126
     48 H         1.199744   -1.878468   -0.300821 H        1 UNL1     0.2101
     49 H         -2.018813   0.939635   -0.902067 H        1 UNL1     0.2100
     50 H         -2.681697   -3.329371   -1.161245 H        1 UNL1     0.2102
@<TRIPOS>BOND
     1     1     2    1
     2     1     6    1
     3     2     3    1
     4     3     4    1
     5     3    29    1
     6     3    33    1
     7     4     5    1
     8     5     6    1
     9     5     7    1
    10     5    35    1
    11     7     8    1
    12     8     9   ar
    13     8    13   ar
    14     9    10   ar
    15     9    36    1
    16    10    11   ar
    17    10    26    1
    18    11    12   ar
    19    11    14    1
    20    12    13   ar
    21    12    17    1
    22    13    37    1
    23    14    15    1
    24    14    25    2
    25    15    16    1
    26    15    38    1
    27    15    39    1
    28    16    17    1
    29    16    18    1
    30    16    40    1
    31    18    19   ar
    32    18    23   ar
    33    19    20   ar
    34    19    41    1
    35    20    21   ar
    36    20    42    1
    37    21    22   ar
    38    21    24    1
    39    22    23   ar
    40    22    43    1
    41    23    44    1
    42    24    45    1
    43    26    46    1
    44    27    47    1
    45    28    48    1
    46    29    49    1
    47    30    50    1
    48     1    31    1
    49     1    27    1
    50     2    32    1
    51     2    28    1
    52     4    34    1
    53     4    30    1
