@<TRIPOS>MOLECULE
*****
 50 53 0 0 0
SMALL
GASTEIGER

@<TRIPOS>ATOM
     1 C         -0.327153   -1.366212   1.672495 C.3        1 UNL1     0.1889
     2 C         -0.462321   -0.979357   0.17516 C.3        1 UNL1     0.1342
     3 C         -1.904869   -0.954161   -0.352936 C.3        1 UNL1     0.1174
     4 C         -2.789573   -2.027642   0.285855 C.3        1 UNL1     0.1456
     5 C         -2.633008   -2.087579   1.816299 C.3        1 UNL1     0.2326
     6 O         -1.267098   -2.314091   2.156668 O.3        1 UNL1     -0.3076
     7 O         -3.205227   -0.955268   2.495826 O.3        1 UNL1     -0.4605
     8 C         -3.72138   -1.201484   3.755386 C.ar        1 UNL1     0.1310
     9 C         -4.538737   -2.283735   4.098841 C.ar        1 UNL1     0.0226
     10 C         -4.998461   -2.456049   5.409895 C.ar        1 UNL1     0.1343
     11 C         -4.632081   -1.562464   6.415437 C.ar        1 UNL1     0.1007
     12 C         -3.849959   -0.455238   6.076146 C.ar        1 UNL1     0.1389
     13 C         -3.390014   -0.280753   4.757269 C.ar        1 UNL1     0.0229
     14 C         -5.020057   -1.742737   7.83358 C.2        1 UNL1     0.1740
     15 C         -4.356928   -0.817115   8.810838 C.3        1 UNL1     0.0520
     16 C         -4.285404   0.570284   8.187969 C.3        1 UNL1     0.1322
     17 O         -3.520366   0.543513   6.962787 O.3        1 UNL1     -0.4828
     18 C         -5.644583   1.264495   8.072092 C.ar        1 UNL1     -0.0067
     19 C         -5.770745   2.408404   7.257372 C.ar        1 UNL1     -0.0516
     20 C         -6.98749   3.094858   7.166413 C.ar        1 UNL1     -0.0198
     21 C         -8.081007   2.65275   7.889315 C.ar        1 UNL1     0.1169
     22 C         -7.997035   1.510008   8.674127 C.ar        1 UNL1     -0.0198
     23 C         -6.785454   0.812695   8.75083 C.ar        1 UNL1     -0.0516
     24 O         -9.238906   3.368717   7.80528 O.3        1 UNL1     -0.5068
     25 O         -5.77022   -2.63465   8.221177 O.2        1 UNL1     -0.2917
     26 O         -5.793389   -3.531827   5.678921 O.3        1 UNL1     -0.5058
     27 O         -0.218523   -0.247272   2.53792 O.3        1 UNL1     -0.3648
     28 O         0.265217   -1.940675   -0.611773 O.3        1 UNL1     -0.3841
     29 O         -2.461366   0.357659   -0.245364 O.3        1 UNL1     -0.3863
     30 O         -2.444407   -3.316489   -0.266796 O.3        1 UNL1     -0.3829
     31 H         0.633622   -1.882067   1.776815 H        1 UNL1     0.0937
     32 H         0.0   0.0   0.0 H        1 UNL1     0.0671
     33 H         -1.87146   -1.169497   -1.430078 H        1 UNL1     0.0649
     34 H         -3.840428   -1.843088   0.036767 H        1 UNL1     0.0683
     35 H         -3.187202   -2.989862   2.103759 H        1 UNL1     0.1085
     36 H         -4.812834   -3.043512   3.375148 H        1 UNL1     0.0691
     37 H         -2.783364   0.59019   4.518676 H        1 UNL1     0.0691
     38 H         -3.355334   -1.211351   9.013108 H        1 UNL1     0.0385
     39 H         -4.922007   -0.821088   9.74916 H        1 UNL1     0.0385
     40 H         -3.694492   1.199856   8.866925 H        1 UNL1     0.0789
     41 H         -4.924696   2.78084   6.687159 H        1 UNL1     0.0623
     42 H         -7.068885   3.982566   6.54403 H        1 UNL1     0.0654
     43 H         -8.85132   1.146379   9.23259 H        1 UNL1     0.0654
     44 H         -6.758644   -0.082059   9.365274 H        1 UNL1     0.0623
     45 H         -9.07449   4.25982   8.154021 H        1 UNL1     0.2921
     46 H         -5.404845   -4.048269   6.402616 H        1 UNL1     0.2922
     47 H         0.51094   0.323067   2.257818 H        1 UNL1     0.2126
     48 H         1.210157   -1.82085   -0.396223 H        1 UNL1     0.2101
     49 H         -2.030382   0.95203   -0.880006 H        1 UNL1     0.2100
     50 H         -2.706711   -3.319855   -1.21067 H        1 UNL1     0.2102
@<TRIPOS>BOND
     1     1     2    1
     2     1     6    1
     3     2     3    1
     4     3     4    1
     5     3    29    1
     6     3    33    1
     7     4     5    1
     8     5     6    1
     9     5     7    1
    10     5    35    1
    11     7     8    1
    12     8     9   ar
    13     8    13   ar
    14     9    10   ar
    15     9    36    1
    16    10    11   ar
    17    10    26    1
    18    11    12   ar
    19    11    14    1
    20    12    13   ar
    21    12    17    1
    22    13    37    1
    23    14    15    1
    24    14    25    2
    25    15    16    1
    26    15    38    1
    27    15    39    1
    28    16    17    1
    29    16    18    1
    30    16    40    1
    31    18    19   ar
    32    18    23   ar
    33    19    20   ar
    34    19    41    1
    35    20    21   ar
    36    20    42    1
    37    21    22   ar
    38    21    24    1
    39    22    23   ar
    40    22    43    1
    41    23    44    1
    42    24    45    1
    43    26    46    1
    44    27    47    1
    45    28    48    1
    46    29    49    1
    47    30    50    1
    48     1    31    1
    49     1    27    1
    50     2    32    1
    51     2    28    1
    52     4    34    1
    53     4    30    1
