@<TRIPOS>MOLECULE
*****
 50 53 0 0 0
SMALL
GASTEIGER

@<TRIPOS>ATOM
     1 C         -1.485233   1.016626   -1.237481 C.3        1 UNL1     0.1889
     2 C         -0.209057   1.017276   -0.353561 C.3        1 UNL1     0.1342
     3 C         -0.265781   1.965665   0.853835 C.3        1 UNL1     0.1174
     4 C         -1.04664   3.249863   0.563646 C.3        1 UNL1     0.1456
     5 C         -2.386827   2.97859   -0.143936 C.3        1 UNL1     0.2326
     6 O         -2.160625   2.260221   -1.354576 O.3        1 UNL1     -0.3076
     7 O         -3.368962   2.359273   0.706463 O.3        1 UNL1     -0.4605
     8 C         -4.680434   2.435245   0.273106 C.ar        1 UNL1     0.1310
     9 C         -5.360855   3.614854   -0.047599 C.ar        1 UNL1     0.0226
     10 C         -6.686971   3.586544   -0.495392 C.ar        1 UNL1     0.1343
     11 C         -7.357797   2.374947   -0.656219 C.ar        1 UNL1     0.1007
     12 C         -6.702372   1.193258   -0.30011 C.ar        1 UNL1     0.1389
     13 C         -5.36985   1.222186   0.152635 C.ar        1 UNL1     0.0229
     14 C         -8.730407   2.281098   -1.205116 C.2        1 UNL1     0.1740
     15 C         -9.211132   0.89455   -1.518062 C.3        1 UNL1     0.0520
     16 C         -8.744732   -0.038789   -0.409321 C.3        1 UNL1     0.1322
     17 O         -7.303081   -0.044142   -0.316132 O.3        1 UNL1     -0.4828
     18 C         -9.465745   0.178717   0.923178 C.ar        1 UNL1     -0.0067
     19 C         -9.267919   1.383184   1.629109 C.ar        1 UNL1     -0.0516
     20 C         -9.87459   1.594728   2.872958 C.ar        1 UNL1     -0.0198
     21 C         -10.673624   0.608827   3.423749 C.ar        1 UNL1     0.1169
     22 C         -10.914322   -0.574305   2.737381 C.ar        1 UNL1     -0.0198
     23 C         -10.322613   -0.778579   1.485099 C.ar        1 UNL1     -0.0516
     24 O         -11.217192   0.835107   4.654088 O.3        1 UNL1     -0.5068
     25 O         -9.420455   3.261524   -1.471733 O.2        1 UNL1     -0.2917
     26 O         -7.293994   4.77232   -0.790422 O.3        1 UNL1     -0.5058
     27 O         -2.382195   -0.040025   -0.934601 O.3        1 UNL1     -0.3648
     28 O         0.908031   1.423953   -1.165618 O.3        1 UNL1     -0.3841
     29 O         -0.73932   1.28044   2.015025 O.3        1 UNL1     -0.3863
     30 O         -0.24598   4.11218   -0.273638 O.3        1 UNL1     -0.3829
     31 H         -1.156641   0.80632   -2.26114 H        1 UNL1     0.0937
     32 H         0.0   0.0   0.0 H        1 UNL1     0.0671
     33 H         0.763843   2.266821   1.09237 H        1 UNL1     0.0649
     34 H         -1.233713   3.792743   1.496751 H        1 UNL1     0.0683
     35 H         -2.743191   3.976894   -0.427259 H        1 UNL1     0.1085
     36 H         -4.876832   4.58403   0.002791 H        1 UNL1     0.0691
     37 H         -4.882368   0.288416   0.424531 H        1 UNL1     0.0691
     38 H         -8.782844   0.605622   -2.483783 H        1 UNL1     0.0385
     39 H         -10.301882   0.906734   -1.61753 H        1 UNL1     0.0385
     40 H         -9.003798   -1.061088   -0.716419 H        1 UNL1     0.0789
     41 H         -8.637883   2.168866   1.222403 H        1 UNL1     0.0623
     42 H         -9.704741   2.522918   3.412983 H        1 UNL1     0.0654
     43 H         -11.550444   -1.346836   3.152658 H        1 UNL1     0.0654
     44 H         -10.540923   -1.710265   0.972121 H        1 UNL1     0.0623
     45 H         -10.980869   1.734572   4.93307 H        1 UNL1     0.2921
     46 H         -6.677452   5.337961   -1.281686 H        1 UNL1     0.2922
     47 H         -1.927085   -0.891865   -0.990306 H        1 UNL1     0.2126
     48 H         0.876698   2.398719   -1.216418 H        1 UNL1     0.2101
     49 H         -1.707812   1.328114   2.054335 H        1 UNL1     0.2100
     50 H         0.695049   3.877355   -0.135671 H        1 UNL1     0.2102
@<TRIPOS>BOND
     1     1     2    1
     2     1     6    1
     3     2     3    1
     4     3     4    1
     5     3    29    1
     6     3    33    1
     7     4     5    1
     8     5     6    1
     9     5     7    1
    10     5    35    1
    11     7     8    1
    12     8     9   ar
    13     8    13   ar
    14     9    10   ar
    15     9    36    1
    16    10    11   ar
    17    10    26    1
    18    11    12   ar
    19    11    14    1
    20    12    13   ar
    21    12    17    1
    22    13    37    1
    23    14    15    1
    24    14    25    2
    25    15    16    1
    26    15    38    1
    27    15    39    1
    28    16    17    1
    29    16    18    1
    30    16    40    1
    31    18    19   ar
    32    18    23   ar
    33    19    20   ar
    34    19    41    1
    35    20    21   ar
    36    20    42    1
    37    21    22   ar
    38    21    24    1
    39    22    23   ar
    40    22    43    1
    41    23    44    1
    42    24    45    1
    43    26    46    1
    44    27    47    1
    45    28    48    1
    46    29    49    1
    47    30    50    1
    48     1    31    1
    49     1    27    1
    50     2    32    1
    51     2    28    1
    52     4    34    1
    53     4    30    1
