@<TRIPOS>MOLECULE
*****
 50 53 0 0 0
SMALL
GASTEIGER

@<TRIPOS>ATOM
     1 C         -0.091364   -1.039461   1.918848 C.3        1 UNL1     0.1889
     2 C         -0.563144   -0.823891   0.455669 C.3        1 UNL1     0.1342
     3 C         -2.066784   -0.549127   0.300629 C.3        1 UNL1     0.1174
     4 C         -2.917713   -1.31298   1.318256 C.3        1 UNL1     0.1456
     5 C         -2.358224   -1.212812   2.749096 C.3        1 UNL1     0.2326
     6 O         -1.014708   -1.689122   2.780109 O.3        1 UNL1     -0.3076
     7 O         -2.508993   0.093794   3.333365 O.3        1 UNL1     -0.4605
     8 C         -2.681525   0.128075   4.705438 C.ar        1 UNL1     0.1310
     9 C         -3.547895   -0.694046   5.434013 C.ar        1 UNL1     0.0226
     10 C         -3.639397   -0.59437   6.827424 C.ar        1 UNL1     0.1343
     11 C         -2.848447   0.314429   7.529082 C.ar        1 UNL1     0.1007
     12 C         -2.009604   1.169042   6.80883 C.ar        1 UNL1     0.1389
     13 C         -1.919726   1.070436   5.407534 C.ar        1 UNL1     0.0229
     14 C         -2.84338   0.403908   9.007635 C.2        1 UNL1     0.1740
     15 C         -1.775213   1.274299   9.601766 C.3        1 UNL1     0.0520
     16 C         -1.635987   2.521969   8.740434 C.3        1 UNL1     0.1322
     17 O         -1.268218   2.172797   7.387698 O.3        1 UNL1     -0.4828
     18 C         -2.824618   3.480324   8.847378 C.ar        1 UNL1     -0.0067
     19 C         -3.406351   3.996137   7.671055 C.ar        1 UNL1     -0.0516
     20 C         -4.463816   4.911412   7.734319 C.ar        1 UNL1     -0.0198
     21 C         -4.94261   5.32344   8.965098 C.ar        1 UNL1     0.1169
     22 C         -4.412599   4.80785   10.140723 C.ar        1 UNL1     -0.0198
     23 C         -3.367407   3.878531   10.077502 C.ar        1 UNL1     -0.0516
     24 O         -5.948162   6.244717   8.987729 O.3        1 UNL1     -0.5068
     25 O         -3.59979   -0.243536   9.726762 O.2        1 UNL1     -0.2917
     26 O         -4.504622   -1.424537   7.478419 O.3        1 UNL1     -0.5058
     27 O         0.449804   0.128061   2.516189 O.3        1 UNL1     -0.3648
     28 O         -0.264796   -2.012697   -0.299603 O.3        1 UNL1     -0.3841
     29 O         -2.328487   0.855734   0.303827 O.3        1 UNL1     -0.3863
     30 O         -2.974317   -2.705195   0.938489 O.3        1 UNL1     -0.3829
     31 H         0.752732   -1.73641   1.8759 H        1 UNL1     0.0937
     32 H         0.0   0.0   0.0 H        1 UNL1     0.0671
     33 H         -2.370908   -0.900299   -0.695315 H        1 UNL1     0.0649
     34 H         -3.945978   -0.934973   1.304722 H        1 UNL1     0.0683
     35 H         -2.963389   -1.927832   3.32041 H        1 UNL1     0.1085
     36 H         -4.147871   -1.458611   4.952775 H        1 UNL1     0.0691
     37 H         -1.259925   1.748119   4.870039 H        1 UNL1     0.0691
     38 H         -0.845058   0.696185   9.612817 H        1 UNL1     0.0385
     39 H         -2.041637   1.513426   10.636954 H        1 UNL1     0.0385
     40 H         -0.77366   3.084725   9.12282 H        1 UNL1     0.0789
     41 H         -3.042475   3.695429   6.692883 H        1 UNL1     0.0623
     42 H         -4.896074   5.311017   6.820272 H        1 UNL1     0.0654
     43 H         -4.790045   5.112242   11.109635 H        1 UNL1     0.0654
     44 H         -2.984388   3.488448   11.015572 H        1 UNL1     0.0623
     45 H         -5.630736   7.055783   8.558625 H        1 UNL1     0.2921
     46 H         -4.021493   -1.935605   8.146855 H        1 UNL1     0.2922
     47 H         1.174227   0.47499   1.977014 H        1 UNL1     0.2126
     48 H         0.706223   -2.116057   -0.28648 H        1 UNL1     0.2101
     49 H         -1.990154   1.256309   -0.51279 H        1 UNL1     0.2100
     50 H         -3.46363   -2.767175   0.092059 H        1 UNL1     0.2102
@<TRIPOS>BOND
     1     1     2    1
     2     1     6    1
     3     2     3    1
     4     3     4    1
     5     3    29    1
     6     3    33    1
     7     4     5    1
     8     5     6    1
     9     5     7    1
    10     5    35    1
    11     7     8    1
    12     8     9   ar
    13     8    13   ar
    14     9    10   ar
    15     9    36    1
    16    10    11   ar
    17    10    26    1
    18    11    12   ar
    19    11    14    1
    20    12    13   ar
    21    12    17    1
    22    13    37    1
    23    14    15    1
    24    14    25    2
    25    15    16    1
    26    15    38    1
    27    15    39    1
    28    16    17    1
    29    16    18    1
    30    16    40    1
    31    18    19   ar
    32    18    23   ar
    33    19    20   ar
    34    19    41    1
    35    20    21   ar
    36    20    42    1
    37    21    22   ar
    38    21    24    1
    39    22    23   ar
    40    22    43    1
    41    23    44    1
    42    24    45    1
    43    26    46    1
    44    27    47    1
    45    28    48    1
    46    29    49    1
    47    30    50    1
    48     1    31    1
    49     1    27    1
    50     2    32    1
    51     2    28    1
    52     4    34    1
    53     4    30    1
