@<TRIPOS>MOLECULE
*****
 50 53 0 0 0
SMALL
GASTEIGER

@<TRIPOS>ATOM
     1 C         -0.338732   -1.333151   1.696695 C.3        1 UNL1     0.1889
     2 C         -0.465545   -0.974747   0.191569 C.3        1 UNL1     0.1342
     3 C         -1.905393   -0.956332   -0.34412 C.3        1 UNL1     0.1174
     4 C         -2.79584   -2.015322   0.31068 C.3        1 UNL1     0.1456
     5 C         -2.647005   -2.046284   1.842755 C.3        1 UNL1     0.2326
     6 O         -1.283349   -2.269397   2.194225 O.3        1 UNL1     -0.3076
     7 O         -3.21985   -0.899837   2.497604 O.3        1 UNL1     -0.4605
     8 C         -3.732646   -1.118214   3.763653 C.ar        1 UNL1     0.1310
     9 C         -4.5528   -2.190127   4.131962 C.ar        1 UNL1     0.0226
     10 C         -5.008722   -2.333772   5.44779 C.ar        1 UNL1     0.1343
     11 C         -4.635676   -1.421107   6.433549 C.ar        1 UNL1     0.1007
     12 C         -3.850651   -0.324007   6.069006 C.ar        1 UNL1     0.1389
     13 C         -3.394526   -0.178353   4.745312 C.ar        1 UNL1     0.0229
     14 C         -5.019519   -1.570779   7.856369 C.2        1 UNL1     0.1740
     15 C         -4.349705   -0.627772   8.812213 C.3        1 UNL1     0.0520
     16 C         -4.275199   0.746271   8.160743 C.3        1 UNL1     0.1322
     17 O         -3.514406   0.691497   6.933851 O.3        1 UNL1     -0.4828
     18 C         -5.632208   1.443027   8.035118 C.ar        1 UNL1     -0.0067
     19 C         -6.006103   2.013665   6.801105 C.ar        1 UNL1     -0.0516
     20 C         -7.219133   2.699202   6.664871 C.ar        1 UNL1     -0.0198
     21 C         -8.061728   2.827067   7.754601 C.ar        1 UNL1     0.1169
     22 C         -7.7366   2.247253   8.974005 C.ar        1 UNL1     -0.0198
     23 C         -6.532142   1.545812   9.105608 C.ar        1 UNL1     -0.0516
     24 O         -9.217056   3.534058   7.594035 O.3        1 UNL1     -0.5068
     25 O         -5.771633   -2.451739   8.264679 O.2        1 UNL1     -0.2917
     26 O         -5.806675   -3.400825   5.741479 O.3        1 UNL1     -0.5058
     27 O         -0.231692   -0.198088   2.541065 O.3        1 UNL1     -0.3648
     28 O         0.263561   -1.952651   -0.573162 O.3        1 UNL1     -0.3841
     29 O         -2.45925   0.358595   -0.264473 O.3        1 UNL1     -0.3863
     30 O         -2.45105   -3.315319   -0.215455 O.3        1 UNL1     -0.3829
     31 H         0.620267   -1.849137   1.815677 H        1 UNL1     0.0937
     32 H         0.0   0.0   0.0 H        1 UNL1     0.0671
     33 H         -1.867167   -1.192345   -1.41676 H        1 UNL1     0.0649
     34 H         -3.844999   -1.83314   0.052852 H        1 UNL1     0.0683
     35 H         -3.204792   -2.941606   2.144666 H        1 UNL1     0.1085
     36 H         -4.832122   -2.963572   3.424938 H        1 UNL1     0.0691
     37 H         -2.785496   0.685237   4.486878 H        1 UNL1     0.0691
     38 H         -3.348886   -1.02151   9.019231 H        1 UNL1     0.0385
     39 H         -4.911623   -0.610371   9.752279 H        1 UNL1     0.0385
     40 H         -3.679694   1.387437   8.82467 H        1 UNL1     0.0789
     41 H         -5.35797   1.934978   5.933129 H        1 UNL1     0.0623
     42 H         -7.490717   3.145072   5.711218 H        1 UNL1     0.0654
     43 H         -8.396093   2.328415   9.829804 H        1 UNL1     0.0654
     44 H         -6.315032   1.09655   10.069907 H        1 UNL1     0.0623
     45 H         -8.987678   4.443892   7.344425 H        1 UNL1     0.2921
     46 H         -5.406351   -3.916247   6.459458 H        1 UNL1     0.2922
     47 H         0.510805   0.356617   2.263827 H        1 UNL1     0.2126
     48 H         1.198962   -1.878707   -0.30244 H        1 UNL1     0.2101
     49 H         -2.019633   0.941158   -0.904123 H        1 UNL1     0.2100
     50 H         -2.687895   -3.328399   -1.165953 H        1 UNL1     0.2102
@<TRIPOS>BOND
     1     1     2    1
     2     1     6    1
     3     2     3    1
     4     3     4    1
     5     3    29    1
     6     3    33    1
     7     4     5    1
     8     5     6    1
     9     5     7    1
    10     5    35    1
    11     7     8    1
    12     8     9   ar
    13     8    13   ar
    14     9    10   ar
    15     9    36    1
    16    10    11   ar
    17    10    26    1
    18    11    12   ar
    19    11    14    1
    20    12    13   ar
    21    12    17    1
    22    13    37    1
    23    14    15    1
    24    14    25    2
    25    15    16    1
    26    15    38    1
    27    15    39    1
    28    16    17    1
    29    16    18    1
    30    16    40    1
    31    18    19   ar
    32    18    23   ar
    33    19    20   ar
    34    19    41    1
    35    20    21   ar
    36    20    42    1
    37    21    22   ar
    38    21    24    1
    39    22    23   ar
    40    22    43    1
    41    23    44    1
    42    24    45    1
    43    26    46    1
    44    27    47    1
    45    28    48    1
    46    29    49    1
    47    30    50    1
    48     1    31    1
    49     1    27    1
    50     2    32    1
    51     2    28    1
    52     4    34    1
    53     4    30    1
