@<TRIPOS>MOLECULE
*****
 50 53 0 0 0
SMALL
GASTEIGER

@<TRIPOS>ATOM
     1 C         1.048748   1.847559   -0.507405 C.3        1 UNL1     0.1889
     2 C         0.981269   0.456775   0.178969 C.3        1 UNL1     0.1342
     3 C         1.258186   0.473344   1.690097 C.3        1 UNL1     0.1174
     4 C         2.299543   1.52111   2.091194 C.3        1 UNL1     0.1456
     5 C         2.040113   2.891121   1.438409 C.3        1 UNL1     0.2326
     6 O         2.005639   2.754778   0.019574 O.3        1 UNL1     -0.3076
     7 O         0.887846   3.57028   1.969771 O.3        1 UNL1     -0.4605
     8 C         0.569884   4.779097   1.377161 C.ar        1 UNL1     0.1310
     9 C         1.244712   5.353082   0.294363 C.ar        1 UNL1     0.0226
     10 C         0.834523   6.576976   -0.247605 C.ar        1 UNL1     0.1343
     11 C         -0.276141   7.245628   0.265396 C.ar        1 UNL1     0.1007
     12 C         -0.933182   6.702666   1.372768 C.ar        1 UNL1     0.1389
     13 C         -0.518932   5.473346   1.919211 C.ar        1 UNL1     0.0229
     14 C         -0.80364   8.49907   -0.321784 C.2        1 UNL1     0.1740
     15 C         -2.128436   8.958918   0.212076 C.3        1 UNL1     0.0520
     16 C         -2.147235   8.72964   1.71708 C.3        1 UNL1     0.1322
     17 O         -1.969801   7.329299   2.024703 O.3        1 UNL1     -0.4828
     18 C         -1.225749   9.67183   2.495453 C.ar        1 UNL1     -0.0067
     19 C         -1.286199   9.692302   3.904048 C.ar        1 UNL1     -0.0516
     20 C         -0.491402   10.57558   4.644373 C.ar        1 UNL1     -0.0198
     21 C         0.360579   11.446516   3.989066 C.ar        1 UNL1     0.1169
     22 C         0.466857   11.426811   2.604452 C.ar        1 UNL1     -0.0198
     23 C         -0.314292   10.530842   1.864787 C.ar        1 UNL1     -0.0516
     24 O         1.091289   12.318474   4.741496 O.3        1 UNL1     -0.5068
     25 O         -0.253581   9.09854   -1.241869 O.2        1 UNL1     -0.2917
     26 O         1.536222   7.083236   -1.302549 O.3        1 UNL1     -0.5058
     27 O         -0.220527   2.460432   -0.669012 O.3        1 UNL1     -0.3648
     28 O         1.966764   -0.399594   -0.427773 O.3        1 UNL1     -0.3841
     29 O         0.040013   0.593224   2.427536 O.3        1 UNL1     -0.3863
     30 O         3.610679   1.060562   1.69812 O.3        1 UNL1     -0.3829
     31 H         1.396941   1.674412   -1.531544 H        1 UNL1     0.0937
     32 H         0.0   0.0   0.0 H        1 UNL1     0.0671
     33 H         1.671081   -0.506985   1.966128 H        1 UNL1     0.0649
     34 H         2.313601   1.636451   3.180643 H        1 UNL1     0.0683
     35 H         2.937484   3.473958   1.681113 H        1 UNL1     0.1085
     36 H         2.080875   4.855803   -0.18487 H        1 UNL1     0.0691
     37 H         -1.046555   5.072505   2.782016 H        1 UNL1     0.0691
     38 H         -2.907871   8.372875   -0.286482 H        1 UNL1     0.0385
     39 H         -2.273934   10.012937   -0.048026 H        1 UNL1     0.0385
     40 H         -3.162313   8.961158   2.067132 H        1 UNL1     0.0789
     41 H         -1.953568   9.024979   4.441589 H        1 UNL1     0.0623
     42 H         -0.555786   10.590064   5.729571 H        1 UNL1     0.0654
     43 H         1.141844   12.094095   2.081925 H        1 UNL1     0.0654
     44 H         -0.197961   10.535363   0.785301 H        1 UNL1     0.0623
     45 H         0.665114   12.406372   5.609462 H        1 UNL1     0.2921
     46 H         1.085051   7.872091   -1.642497 H        1 UNL1     0.2922
     47 H         -0.115254   3.375718   -0.964019 H        1 UNL1     0.2126
     48 H         1.479101   -1.136907   -0.842847 H        1 UNL1     0.2101
     49 H         -0.112691   1.522014   2.663807 H        1 UNL1     0.2100
     50 H         3.506796   0.49825   0.902679 H        1 UNL1     0.2102
@<TRIPOS>BOND
     1     1     2    1
     2     1     6    1
     3     2     3    1
     4     3     4    1
     5     3    29    1
     6     3    33    1
     7     4     5    1
     8     5     6    1
     9     5     7    1
    10     5    35    1
    11     7     8    1
    12     8     9   ar
    13     8    13   ar
    14     9    10   ar
    15     9    36    1
    16    10    11   ar
    17    10    26    1
    18    11    12   ar
    19    11    14    1
    20    12    13   ar
    21    12    17    1
    22    13    37    1
    23    14    15    1
    24    14    25    2
    25    15    16    1
    26    15    38    1
    27    15    39    1
    28    16    17    1
    29    16    18    1
    30    16    40    1
    31    18    19   ar
    32    18    23   ar
    33    19    20   ar
    34    19    41    1
    35    20    21   ar
    36    20    42    1
    37    21    22   ar
    38    21    24    1
    39    22    23   ar
    40    22    43    1
    41    23    44    1
    42    24    45    1
    43    26    46    1
    44    27    47    1
    45    28    48    1
    46    29    49    1
    47    30    50    1
    48     1    31    1
    49     1    27    1
    50     2    32    1
    51     2    28    1
    52     4    34    1
    53     4    30    1
