@<TRIPOS>MOLECULE
*****
 50 53 0 0 0
SMALL
GASTEIGER

@<TRIPOS>ATOM
     1 C         -0.672975   -1.843416   0.959024 C.3        1 UNL1     0.1889
     2 C         0.005924   -1.07716   -0.207976 C.3        1 UNL1     0.1342
     3 C         -0.621565   -1.324445   -1.588401 C.3        1 UNL1     0.1174
     4 C         -1.141142   -2.754432   -1.756606 C.3        1 UNL1     0.1456
     5 C         -1.966204   -3.228801   -0.546395 C.3        1 UNL1     0.2326
     6 O         -1.186079   -3.129171   0.642868 O.3        1 UNL1     -0.3076
     7 O         -3.247999   -2.583369   -0.438038 O.3        1 UNL1     -0.4605
     8 C         -4.265811   -3.344602   0.107957 C.ar        1 UNL1     0.1310
     9 C         -4.557885   -4.67005   -0.231425 C.ar        1 UNL1     0.0226
     10 C         -5.601904   -5.363592   0.392214 C.ar        1 UNL1     0.1343
     11 C         -6.364714   -4.755557   1.388334 C.ar        1 UNL1     0.1007
     12 C         -6.10904   -3.419146   1.706798 C.ar        1 UNL1     0.1389
     13 C         -5.060938   -2.721173   1.077714 C.ar        1 UNL1     0.0229
     14 C         -7.424621   -5.468057   2.138729 C.2        1 UNL1     0.1740
     15 C         -7.988024   -4.735041   3.320598 C.3        1 UNL1     0.0520
     16 C         -8.143186   -3.267068   2.947855 C.3        1 UNL1     0.1322
     17 O         -6.866879   -2.690255   2.59374 O.3        1 UNL1     -0.4828
     18 C         -9.261195   -3.003017   1.936392 C.ar        1 UNL1     -0.0067
     19 C         -9.471447   -1.691495   1.463193 C.ar        1 UNL1     -0.0516
     20 C         -10.514979   -1.40724   0.57426 C.ar        1 UNL1     -0.0198
     21 C         -11.357791   -2.422125   0.157721 C.ar        1 UNL1     0.1169
     22 C         -11.155631   -3.729666   0.579985 C.ar        1 UNL1     -0.0198
     23 C         -10.100865   -4.017456   1.454457 C.ar        1 UNL1     -0.0516
     24 O         -12.386229   -2.100679   -0.678573 O.3        1 UNL1     -0.5068
     25 O         -7.780692   -6.615001   1.881399 O.2        1 UNL1     -0.2917
     26 O         -5.835719   -6.653744   0.014823 O.3        1 UNL1     -0.5058
     27 O         -1.618517   -1.063279   1.673252 O.3        1 UNL1     -0.3648
     28 O         1.38344   -1.488783   -0.283629 O.3        1 UNL1     -0.3841
     29 O         -1.613427   -0.337487   -1.87867 O.3        1 UNL1     -0.3863
     30 O         -0.020395   -3.647984   -1.933186 O.3        1 UNL1     -0.3829
     31 H         0.112119   -2.054483   1.693297 H        1 UNL1     0.0937
     32 H         0.0   0.0   0.0 H        1 UNL1     0.0671
     33 H         0.163201   -1.180499   -2.34414 H        1 UNL1     0.0649
     34 H         -1.753676   -2.825676   -2.662215 H        1 UNL1     0.0683
     35 H         -2.123362   -4.297999   -0.736119 H        1 UNL1     0.1085
     36 H         -3.966202   -5.216313   -0.957806 H        1 UNL1     0.0691
     37 H         -4.883041   -1.681156   1.342686 H        1 UNL1     0.0691
     38 H         -7.286584   -4.859285   4.152507 H        1 UNL1     0.0385
     39 H         -8.941384   -5.192825   3.60576 H        1 UNL1     0.0385
     40 H         -8.443125   -2.731725   3.858879 H        1 UNL1     0.0789
     41 H         -8.829313   -0.875735   1.782334 H        1 UNL1     0.0623
     42 H         -10.674131   -0.389746   0.225851 H        1 UNL1     0.0654
     43 H         -11.800476   -4.534651   0.248194 H        1 UNL1     0.0654
     44 H         -9.965798   -5.051804   1.755664 H        1 UNL1     0.0623
     45 H         -12.976198   -1.483626   -0.216082 H        1 UNL1     0.2921
     46 H         -5.78805   -7.231997   0.792487 H        1 UNL1     0.2922
     47 H         -1.209329   -0.244074   1.985227 H        1 UNL1     0.2126
     48 H         1.817485   -1.16375   0.528584 H        1 UNL1     0.2101
     49 H         -1.189333   0.522406   -2.028744 H        1 UNL1     0.2100
     50 H         0.39701   -3.441436   -2.795058 H        1 UNL1     0.2102
@<TRIPOS>BOND
     1     1     2    1
     2     1     6    1
     3     2     3    1
     4     3     4    1
     5     3    29    1
     6     3    33    1
     7     4     5    1
     8     5     6    1
     9     5     7    1
    10     5    35    1
    11     7     8    1
    12     8     9   ar
    13     8    13   ar
    14     9    10   ar
    15     9    36    1
    16    10    11   ar
    17    10    26    1
    18    11    12   ar
    19    11    14    1
    20    12    13   ar
    21    12    17    1
    22    13    37    1
    23    14    15    1
    24    14    25    2
    25    15    16    1
    26    15    38    1
    27    15    39    1
    28    16    17    1
    29    16    18    1
    30    16    40    1
    31    18    19   ar
    32    18    23   ar
    33    19    20   ar
    34    19    41    1
    35    20    21   ar
    36    20    42    1
    37    21    22   ar
    38    21    24    1
    39    22    23   ar
    40    22    43    1
    41    23    44    1
    42    24    45    1
    43    26    46    1
    44    27    47    1
    45    28    48    1
    46    29    49    1
    47    30    50    1
    48     1    31    1
    49     1    27    1
    50     2    32    1
    51     2    28    1
    52     4    34    1
    53     4    30    1
