@<TRIPOS>MOLECULE
*****
 50 53 0 0 0
SMALL
GASTEIGER

@<TRIPOS>ATOM
     1 C         -1.441413   -1.321286   0.973312 C.3        1 UNL1     0.1889
     2 C         -0.874731   -0.600332   -0.2793 C.3        1 UNL1     0.1342
     3 C         -1.883261   0.295554   -1.014638 C.3        1 UNL1     0.1174
     4 C         -3.308049   -0.262985   -0.981028 C.3        1 UNL1     0.1456
     5 C         -3.724351   -0.734007   0.424388 C.3        1 UNL1     0.2326
     6 O         -2.804311   -1.713331   0.90117 O.3        1 UNL1     -0.3076
     7 O         -3.932683   0.345985   1.352577 O.3        1 UNL1     -0.4605
     8 C         -4.889767   0.13096   2.327915 C.ar        1 UNL1     0.1310
     9 C         -6.162882   -0.406397   2.109454 C.ar        1 UNL1     0.0226
     10 C         -7.057396   -0.601921   3.168472 C.ar        1 UNL1     0.1343
     11 C         -6.691316   -0.286644   4.476305 C.ar        1 UNL1     0.1007
     12 C         -5.437932   0.288764   4.701511 C.ar        1 UNL1     0.1389
     13 C         -4.539679   0.487716   3.636152 C.ar        1 UNL1     0.0229
     14 C         -7.565079   -0.550437   5.642969 C.2        1 UNL1     0.1740
     15 C         -6.928086   -0.35811   6.987884 C.3        1 UNL1     0.0520
     16 C         -6.04928   0.88386   6.931581 C.3        1 UNL1     0.1322
     17 O         -5.016627   0.736457   5.932096 O.3        1 UNL1     -0.4828
     18 C         -6.837452   2.1928   6.841123 C.ar        1 UNL1     -0.0067
     19 C         -6.462023   3.16289   5.889181 C.ar        1 UNL1     -0.0516
     20 C         -7.131418   4.39003   5.81173 C.ar        1 UNL1     -0.0198
     21 C         -8.170734   4.661471   6.683492 C.ar        1 UNL1     0.1169
     22 C         -8.585319   3.713089   7.609521 C.ar        1 UNL1     -0.0198
     23 C         -7.928106   2.478644   7.674887 C.ar        1 UNL1     -0.0516
     24 O         -8.774312   5.882003   6.603524 O.3        1 UNL1     -0.5068
     25 O         -8.712814   -0.976673   5.545438 O.2        1 UNL1     -0.2917
     26 O         -8.28425   -1.128972   2.888058 O.3        1 UNL1     -0.5058
     27 O         -1.152866   -0.651292   2.190126 O.3        1 UNL1     -0.3648
     28 O         -0.42556   -1.597666   -1.215397 O.3        1 UNL1     -0.3841
     29 O         -1.805181   1.641613   -0.541179 O.3        1 UNL1     -0.3863
     30 O         -3.400438   -1.380385   -1.891287 O.3        1 UNL1     -0.3829
     31 H         -0.905227   -2.27301   1.055801 H        1 UNL1     0.0937
     32 H         0.0   0.0   0.0 H        1 UNL1     0.0671
     33 H         -1.584209   0.340085   -2.071191 H        1 UNL1     0.0649
     34 H         -4.015689   0.496068   -1.33243 H        1 UNL1     0.0683
     35 H         -4.679697   -1.247668   0.259025 H        1 UNL1     0.1085
     36 H         -6.486526   -0.72364   1.124197 H        1 UNL1     0.0691
     37 H         -3.570301   0.938454   3.837731 H        1 UNL1     0.0691
     38 H         -6.334278   -1.252643   7.204056 H        1 UNL1     0.0385
     39 H         -7.712391   -0.276245   7.748109 H        1 UNL1     0.0385
     40 H         -5.504149   0.938105   7.883636 H        1 UNL1     0.0789
     41 H         -5.643527   2.977579   5.199707 H        1 UNL1     0.0623
     42 H         -6.824785   5.134609   5.081257 H        1 UNL1     0.0654
     43 H         -9.407822   3.909416   8.28691 H        1 UNL1     0.0654
     44 H         -8.285299   1.757129   8.403361 H        1 UNL1     0.0623
     45 H         -8.107365   6.56593   6.77714 H        1 UNL1     0.2921
     46 H         -8.418348   -1.933731   3.413219 H        1 UNL1     0.2922
     47 H         -0.198611   -0.52257   2.283335 H        1 UNL1     0.2126
     48 H         0.280935   -2.102599   -0.768586 H        1 UNL1     0.2101
     49 H         -0.965816   2.041237   -0.819677 H        1 UNL1     0.2100
     50 H         -3.270972   -1.039939   -2.800709 H        1 UNL1     0.2102
@<TRIPOS>BOND
     1     1     2    1
     2     1     6    1
     3     2     3    1
     4     3     4    1
     5     3    29    1
     6     3    33    1
     7     4     5    1
     8     5     6    1
     9     5     7    1
    10     5    35    1
    11     7     8    1
    12     8     9   ar
    13     8    13   ar
    14     9    10   ar
    15     9    36    1
    16    10    11   ar
    17    10    26    1
    18    11    12   ar
    19    11    14    1
    20    12    13   ar
    21    12    17    1
    22    13    37    1
    23    14    15    1
    24    14    25    2
    25    15    16    1
    26    15    38    1
    27    15    39    1
    28    16    17    1
    29    16    18    1
    30    16    40    1
    31    18    19   ar
    32    18    23   ar
    33    19    20   ar
    34    19    41    1
    35    20    21   ar
    36    20    42    1
    37    21    22   ar
    38    21    24    1
    39    22    23   ar
    40    22    43    1
    41    23    44    1
    42    24    45    1
    43    26    46    1
    44    27    47    1
    45    28    48    1
    46    29    49    1
    47    30    50    1
    48     1    31    1
    49     1    27    1
    50     2    32    1
    51     2    28    1
    52     4    34    1
    53     4    30    1
