@<TRIPOS>MOLECULE
*****
 50 53 0 0 0
SMALL
GASTEIGER

@<TRIPOS>ATOM
     1 C         -0.332429   -1.332192   1.698693 C.3        1 UNL1     0.1889
     2 C         -0.463539   -0.975306   0.193574 C.3        1 UNL1     0.1342
     3 C         -1.90474   -0.959615   -0.338552 C.3        1 UNL1     0.1174
     4 C         -2.791897   -2.019424   0.319381 C.3        1 UNL1     0.1456
     5 C         -2.639211   -2.048811   1.851108 C.3        1 UNL1     0.2326
     6 O         -1.274339   -2.26948   2.199385 O.3        1 UNL1     -0.3076
     7 O         -3.212226   -0.902688   2.506377 O.3        1 UNL1     -0.4605
     8 C         -3.721534   -1.120759   3.773886 C.ar        1 UNL1     0.1310
     9 C         -4.53909   -2.193631   4.145165 C.ar        1 UNL1     0.0226
     10 C         -4.991519   -2.336836   5.462246 C.ar        1 UNL1     0.1343
     11 C         -4.617459   -1.422726   6.446279 C.ar        1 UNL1     0.1007
     12 C         -3.835062   -0.324718   6.078831 C.ar        1 UNL1     0.1389
     13 C         -3.382453   -0.17951   4.753882 C.ar        1 UNL1     0.0229
     14 C         -4.997533   -1.571752   7.870178 C.2        1 UNL1     0.1740
     15 C         -4.326829   -0.62686   8.823532 C.3        1 UNL1     0.0520
     16 C         -4.256094   0.746726   8.170682 C.3        1 UNL1     0.1322
     17 O         -3.498264   0.692069   6.941952 O.3        1 UNL1     -0.4828
     18 C         -5.614501   1.441247   8.04782 C.ar        1 UNL1     -0.0067
     19 C         -5.992353   2.010217   6.814242 C.ar        1 UNL1     -0.0516
     20 C         -7.20679   2.693735   6.680423 C.ar        1 UNL1     -0.0198
     21 C         -8.046877   2.821235   7.772131 C.ar        1 UNL1     0.1169
     22 C         -7.717814   2.242999   8.991229 C.ar        1 UNL1     -0.0198
     23 C         -6.511935   1.543561   9.120452 C.ar        1 UNL1     -0.0516
     24 O         -9.203707   3.526275   7.613817 O.3        1 UNL1     -0.5068
     25 O         -5.74725   -2.453531   8.281124 O.2        1 UNL1     -0.2917
     26 O         -5.787067   -3.40488   5.758847 O.3        1 UNL1     -0.5058
     27 O         -0.225073   -0.196224   2.541805 O.3        1 UNL1     -0.3648
     28 O         0.265199   -1.952738   -0.572112 O.3        1 UNL1     -0.3841
     29 O         -2.460458   0.354512   -0.258677 O.3        1 UNL1     -0.3863
     30 O         -2.446377   -3.31934   -0.206475 O.3        1 UNL1     -0.3829
     31 H         0.627671   -1.846573   1.815744 H        1 UNL1     0.0937
     32 H         0.0   0.0   0.0 H        1 UNL1     0.0671
     33 H         -1.868806   -1.196508   -1.411077 H        1 UNL1     0.0649
     34 H         -3.841977   -1.839111   0.064 H        1 UNL1     0.0683
     35 H         -3.194843   -2.94474   2.155184 H        1 UNL1     0.1085
     36 H         -4.818954   -2.968131   3.439512 H        1 UNL1     0.0691
     37 H         -2.775421   0.684806   4.493182 H        1 UNL1     0.0691
     38 H         -3.324882   -1.018849   9.028408 H        1 UNL1     0.0385
     39 H         -4.886437   -0.609516   9.764976 H        1 UNL1     0.0385
     40 H         -3.659949   1.389406   8.832568 H        1 UNL1     0.0789
     41 H         -5.346254   1.931785   5.944728 H        1 UNL1     0.0623
     42 H         -7.481439   3.138343   5.727059 H        1 UNL1     0.0654
     43 H         -8.375307   2.323878   9.848592 H        1 UNL1     0.0654
     44 H         -6.291728   1.095484   10.084599 H        1 UNL1     0.0623
     45 H         -8.976533   4.434766   7.357393 H        1 UNL1     0.2921
     46 H         -5.383465   -3.919821   6.475334 H        1 UNL1     0.2922
     47 H         0.518405   0.357273   2.264781 H        1 UNL1     0.2126
     48 H         1.198404   -1.888799   -0.291448 H        1 UNL1     0.2101
     49 H         -2.021438   0.937891   -0.897993 H        1 UNL1     0.2100
     50 H         -2.680339   -3.331699   -1.157696 H        1 UNL1     0.2102
@<TRIPOS>BOND
     1     1     2    1
     2     1     6    1
     3     2     3    1
     4     3     4    1
     5     3    29    1
     6     3    33    1
     7     4     5    1
     8     5     6    1
     9     5     7    1
    10     5    35    1
    11     7     8    1
    12     8     9   ar
    13     8    13   ar
    14     9    10   ar
    15     9    36    1
    16    10    11   ar
    17    10    26    1
    18    11    12   ar
    19    11    14    1
    20    12    13   ar
    21    12    17    1
    22    13    37    1
    23    14    15    1
    24    14    25    2
    25    15    16    1
    26    15    38    1
    27    15    39    1
    28    16    17    1
    29    16    18    1
    30    16    40    1
    31    18    19   ar
    32    18    23   ar
    33    19    20   ar
    34    19    41    1
    35    20    21   ar
    36    20    42    1
    37    21    22   ar
    38    21    24    1
    39    22    23   ar
    40    22    43    1
    41    23    44    1
    42    24    45    1
    43    26    46    1
    44    27    47    1
    45    28    48    1
    46    29    49    1
    47    30    50    1
    48     1    31    1
    49     1    27    1
    50     2    32    1
    51     2    28    1
    52     4    34    1
    53     4    30    1
