@<TRIPOS>MOLECULE
*****
 50 53 0 0 0
SMALL
GASTEIGER

@<TRIPOS>ATOM
     1 C         -0.406267   -1.970808   -0.84951 C.3        1 UNL1     0.1889
     2 C         -0.04653   -1.041694   0.340984 C.3        1 UNL1     0.1342
     3 C         1.267173   -1.394271   1.055365 C.3        1 UNL1     0.1174
     4 C         1.533023   -2.901095   1.099206 C.3        1 UNL1     0.1456
     5 C         1.302982   -3.580891   -0.262896 C.3        1 UNL1     0.2326
     6 O         -0.027316   -3.332348   -0.711675 O.3        1 UNL1     -0.3076
     7 O         2.302319   -3.250505   -1.244471 O.3        1 UNL1     -0.4605
     8 C         2.752596   -4.298175   -2.027521 C.ar        1 UNL1     0.1310
     9 C         2.284437   -5.615131   -1.966243 C.ar        1 UNL1     0.0226
     10 C         2.7935   -6.604473   -2.815925 C.ar        1 UNL1     0.1343
     11 C         3.767151   -6.295257   -3.764729 C.ar        1 UNL1     0.1007
     12 C         4.271815   -4.992853   -3.807616 C.ar        1 UNL1     0.1389
     13 C         3.761677   -3.99886   -2.951365 C.ar        1 UNL1     0.0229
     14 C         4.279852   -7.281839   -4.743478 C.2        1 UNL1     0.1740
     15 C         5.153323   -6.725508   -5.829339 C.3        1 UNL1     0.0520
     16 C         6.072627   -5.676908   -5.218377 C.3        1 UNL1     0.1322
     17 O         5.305916   -4.604522   -4.627435 O.3        1 UNL1     -0.4828
     18 C         7.153502   -6.261538   -4.305885 C.ar        1 UNL1     -0.0067
     19 C         8.109124   -7.147779   -4.844009 C.ar        1 UNL1     -0.0516
     20 C         9.082002   -7.737166   -4.027863 C.ar        1 UNL1     -0.0198
     21 C         9.105232   -7.454772   -2.67378 C.ar        1 UNL1     0.1169
     22 C         8.198361   -6.560165   -2.120515 C.ar        1 UNL1     -0.0198
     23 C         7.236929   -5.956383   -2.939753 C.ar        1 UNL1     -0.0516
     24 O         10.04355   -8.076807   -1.903694 O.3        1 UNL1     -0.5068
     25 O         3.961971   -8.468177   -4.737408 O.2        1 UNL1     -0.2917
     26 O         2.295092   -7.869703   -2.704708 O.3        1 UNL1     -0.5058
     27 O         -0.025013   -1.44621   -2.111346 O.3        1 UNL1     -0.3648
     28 O         -1.100755   -1.123353   1.318045 O.3        1 UNL1     -0.3841
     29 O         2.358718   -0.655538   0.503155 O.3        1 UNL1     -0.3863
     30 O         0.658061   -3.508333   2.0746 O.3        1 UNL1     -0.3829
     31 H         -1.500033   -2.012707   -0.894224 H        1 UNL1     0.0937
     32 H         0.0   0.0   0.0 H        1 UNL1     0.0671
     33 H         1.183432   -1.055879   2.097573 H        1 UNL1     0.0649
     34 H         2.560672   -3.090113   1.428768 H        1 UNL1     0.0683
     35 H         1.368698   -4.652801   -0.038016 H        1 UNL1     0.1085
     36 H         1.489221   -5.90668   -1.288932 H        1 UNL1     0.0691
     37 H         4.172238   -2.992788   -3.003823 H        1 UNL1     0.0691
     38 H         4.498166   -6.282972   -6.587268 H        1 UNL1     0.0385
     39 H         5.711618   -7.544362   -6.295775 H        1 UNL1     0.0385
     40 H         6.616708   -5.201776   -6.045871 H        1 UNL1     0.0789
     41 H         8.106367   -7.392732   -5.90214 H        1 UNL1     0.0623
     42 H         9.80601   -8.428152   -4.452554 H        1 UNL1     0.0654
     43 H         8.21707   -6.320317   -1.06409 H        1 UNL1     0.0654
     44 H         6.550792   -5.25433   -2.475877 H        1 UNL1     0.0623
     45 H         10.024194   -9.026634   -2.104122 H        1 UNL1     0.2921
     46 H         1.794231   -7.948558   -1.877465 H        1 UNL1     0.2922
     47 H         0.933884   -1.323304   -2.146969 H        1 UNL1     0.2126
     48 H         -1.911312   -1.374397   0.834613 H        1 UNL1     0.2101
     49 H         3.138185   -1.22819   0.423817 H        1 UNL1     0.2100
     50 H         -0.066365   -3.957389   1.591621 H        1 UNL1     0.2102
@<TRIPOS>BOND
     1     1     2    1
     2     1     6    1
     3     2     3    1
     4     3     4    1
     5     3    29    1
     6     3    33    1
     7     4     5    1
     8     5     6    1
     9     5     7    1
    10     5    35    1
    11     7     8    1
    12     8     9   ar
    13     8    13   ar
    14     9    10   ar
    15     9    36    1
    16    10    11   ar
    17    10    26    1
    18    11    12   ar
    19    11    14    1
    20    12    13   ar
    21    12    17    1
    22    13    37    1
    23    14    15    1
    24    14    25    2
    25    15    16    1
    26    15    38    1
    27    15    39    1
    28    16    17    1
    29    16    18    1
    30    16    40    1
    31    18    19   ar
    32    18    23   ar
    33    19    20   ar
    34    19    41    1
    35    20    21   ar
    36    20    42    1
    37    21    22   ar
    38    21    24    1
    39    22    23   ar
    40    22    43    1
    41    23    44    1
    42    24    45    1
    43    26    46    1
    44    27    47    1
    45    28    48    1
    46    29    49    1
    47    30    50    1
    48     1    31    1
    49     1    27    1
    50     2    32    1
    51     2    28    1
    52     4    34    1
    53     4    30    1
