@<TRIPOS>MOLECULE
*****
 50 53 0 0 0
SMALL
GASTEIGER

@<TRIPOS>ATOM
     1 C         0.194648   -1.866361   1.11786 C.3        1 UNL1     0.1889
     2 C         0.395918   -1.01032   -0.161446 C.3        1 UNL1     0.1342
     3 C         -0.235324   -1.59869   -1.432594 C.3        1 UNL1     0.1174
     4 C         -0.181627   -3.128045   -1.46871 C.3        1 UNL1     0.1456
     5 C         -0.624181   -3.765728   -0.139097 C.3        1 UNL1     0.2326
     6 O         0.182808   -3.273608   0.928356 O.3        1 UNL1     -0.3076
     7 O         -2.03538   -3.641327   0.114601 O.3        1 UNL1     -0.4605
     8 C         -2.391906   -2.815333   1.165387 C.ar        1 UNL1     0.1310
     9 C         -3.536196   -2.011776   1.212254 C.ar        1 UNL1     0.0226
     10 C         -3.81955   -1.220519   2.331864 C.ar        1 UNL1     0.1343
     11 C         -2.976978   -1.231843   3.442622 C.ar        1 UNL1     0.1007
     12 C         -1.809935   -1.998748   3.39111 C.ar        1 UNL1     0.1389
     13 C         -1.523884   -2.792229   2.26417 C.ar        1 UNL1     0.0229
     14 C         -3.271627   -0.480297   4.684602 C.2        1 UNL1     0.1740
     15 C         -2.379618   -0.781665   5.852955 C.3        1 UNL1     0.0520
     16 C         -0.951924   -0.926482   5.344354 C.3        1 UNL1     0.1322
     17 O         -0.856583   -2.000414   4.382767 O.3        1 UNL1     -0.4828
     18 C         -0.324075   0.392295   4.886799 C.ar        1 UNL1     -0.0067
     19 C         -1.073422   1.272793   4.079696 C.ar        1 UNL1     -0.0516
     20 C         -0.513145   2.464671   3.604849 C.ar        1 UNL1     -0.0198
     21 C         0.794905   2.783175   3.923263 C.ar        1 UNL1     0.1169
     22 C         1.547217   1.952589   4.743625 C.ar        1 UNL1     -0.0198
     23 C         0.981147   0.769642   5.233785 C.ar        1 UNL1     -0.0516
     24 O         1.318864   3.933815   3.411507 O.3        1 UNL1     -0.5068
     25 O         -4.225674   0.284226   4.80201 O.2        1 UNL1     -0.2917
     26 O         -4.951245   -0.458594   2.31398 O.3        1 UNL1     -0.5058
     27 O         -0.893738   -1.436753   1.920131 O.3        1 UNL1     -0.3648
     28 O         1.808779   -0.880156   -0.405547 O.3        1 UNL1     -0.3841
     29 O         -1.555161   -1.086503   -1.627093 O.3        1 UNL1     -0.3863
     30 O         1.169616   -3.547934   -1.757718 O.3        1 UNL1     -0.3829
     31 H         1.075711   -1.70016   1.747292 H        1 UNL1     0.0937
     32 H         0.0   0.0   0.0 H        1 UNL1     0.0671
     33 H         0.346628   -1.239852   -2.292994 H        1 UNL1     0.0649
     34 H         -0.814857   -3.505456   -2.279254 H        1 UNL1     0.0683
     35 H         -0.378877   -4.82823   -0.26073 H        1 UNL1     0.1085
     36 H         -4.259385   -2.001716   0.40416 H        1 UNL1     0.0691
     37 H         -0.608229   -3.379442   2.248374 H        1 UNL1     0.0691
     38 H         -2.733173   -1.713051   6.307977 H        1 UNL1     0.0385
     39 H         -2.475926   0.019156   6.594028 H        1 UNL1     0.0385
     40 H         -0.3388   -1.261592   6.19188 H        1 UNL1     0.0789
     41 H         -2.099209   1.041124   3.808143 H        1 UNL1     0.0623
     42 H         -1.097312   3.129594   2.973471 H        1 UNL1     0.0654
     43 H         2.567531   2.199758   5.011538 H        1 UNL1     0.0654
     44 H         1.594225   0.1496   5.880723 H        1 UNL1     0.0623
     45 H         1.22176   3.912027   2.445685 H        1 UNL1     0.2921
     46 H         -5.051046   -0.048   1.440558 H        1 UNL1     0.2922
     47 H         -0.571978   -1.097313   2.766955 H        1 UNL1     0.2126
     48 H         2.123587   -1.756383   -0.700259 H        1 UNL1     0.2101
     49 H         -2.054884   -1.138169   -0.796791 H        1 UNL1     0.2100
     50 H         1.661614   -2.770318   -2.09382 H        1 UNL1     0.2102
@<TRIPOS>BOND
     1     1     2    1
     2     1     6    1
     3     2     3    1
     4     3     4    1
     5     3    29    1
     6     3    33    1
     7     4     5    1
     8     5     6    1
     9     5     7    1
    10     5    35    1
    11     7     8    1
    12     8     9   ar
    13     8    13   ar
    14     9    10   ar
    15     9    36    1
    16    10    11   ar
    17    10    26    1
    18    11    12   ar
    19    11    14    1
    20    12    13   ar
    21    12    17    1
    22    13    37    1
    23    14    15    1
    24    14    25    2
    25    15    16    1
    26    15    38    1
    27    15    39    1
    28    16    17    1
    29    16    18    1
    30    16    40    1
    31    18    19   ar
    32    18    23   ar
    33    19    20   ar
    34    19    41    1
    35    20    21   ar
    36    20    42    1
    37    21    22   ar
    38    21    24    1
    39    22    23   ar
    40    22    43    1
    41    23    44    1
    42    24    45    1
    43    26    46    1
    44    27    47    1
    45    28    48    1
    46    29    49    1
    47    30    50    1
    48     1    31    1
    49     1    27    1
    50     2    32    1
    51     2    28    1
    52     4    34    1
    53     4    30    1
