@<TRIPOS>MOLECULE
*****
 50 53 0 0 0
SMALL
GASTEIGER

@<TRIPOS>ATOM
     1 C         -1.800342   -0.559653   1.102888 C.3        1 UNL1     0.1889
     2 C         -0.787586   0.495073   0.581525 C.3        1 UNL1     0.1342
     3 C         -0.136982   1.355107   1.675839 C.3        1 UNL1     0.1174
     4 C         -1.086652   1.65446   2.838435 C.3        1 UNL1     0.1456
     5 C         -1.838746   0.401784   3.323739 C.3        1 UNL1     0.2326
     6 O         -2.560339   -0.181731   2.241297 O.3        1 UNL1     -0.3076
     7 O         -0.998142   -0.53923   4.015982 O.3        1 UNL1     -0.4605
     8 C         -1.411222   -1.859026   3.983848 C.ar        1 UNL1     0.1310
     9 C         -0.619167   -2.96428   4.313032 C.ar        1 UNL1     0.0226
     10 C         -1.135602   -4.264641   4.265484 C.ar        1 UNL1     0.1343
     11 C         -2.464889   -4.489599   3.910193 C.ar        1 UNL1     0.1007
     12 C         -3.253933   -3.397376   3.539732 C.ar        1 UNL1     0.1389
     13 C         -2.733665   -2.090205   3.585074 C.ar        1 UNL1     0.0229
     14 C         -3.085718   -5.834413   3.924326 C.2        1 UNL1     0.1740
     15 C         -4.573651   -5.864679   3.732781 C.3        1 UNL1     0.0520
     16 C         -4.943162   -4.841844   2.667311 C.3        1 UNL1     0.1322
     17 O         -4.541653   -3.513855   3.070182 O.3        1 UNL1     -0.4828
     18 C         -4.50338   -5.236572   1.255395 C.ar        1 UNL1     -0.0067
     19 C         -5.231016   -6.218843   0.552614 C.ar        1 UNL1     -0.0516
     20 C         -4.828096   -6.637045   -0.721248 C.ar        1 UNL1     -0.0198
     21 C         -3.697645   -6.087211   -1.298822 C.ar        1 UNL1     0.1169
     22 C         -2.979483   -5.093979   -0.645698 C.ar        1 UNL1     -0.0198
     23 C         -3.392773   -4.662371   0.620383 C.ar        1 UNL1     -0.0516
     24 O         -3.314199   -6.546484   -2.524562 O.3        1 UNL1     -0.5068
     25 O         -2.459929   -6.865588   4.155733 O.2        1 UNL1     -0.2917
     26 O         -0.31049   -5.2993   4.59753 O.3        1 UNL1     -0.5058
     27 O         -1.240886   -1.854741   1.253024 O.3        1 UNL1     -0.3648
     28 O         -1.478506   1.388505   -0.311288 O.3        1 UNL1     -0.3841
     29 O         1.098958   0.780137   2.104785 O.3        1 UNL1     -0.3863
     30 O         -2.052873   2.64229   2.418557 O.3        1 UNL1     -0.3829
     31 H         -2.556196   -0.681605   0.319376 H        1 UNL1     0.0937
     32 H         0.0   0.0   0.0 H        1 UNL1     0.0671
     33 H         0.13108   2.321951   1.227424 H        1 UNL1     0.0649
     34 H         -0.528143   2.087901   3.675452 H        1 UNL1     0.0683
     35 H         -2.582706   0.795927   4.02734 H        1 UNL1     0.1085
     36 H         0.405166   -2.851382   4.650843 H        1 UNL1     0.0691
     37 H         -3.368179   -1.257006   3.290684 H        1 UNL1     0.0691
     38 H         -5.03643   -5.618123   4.694328 H        1 UNL1     0.0385
     39 H         -4.879379   -6.87949   3.456253 H        1 UNL1     0.0385
     40 H         -6.039966   -4.797026   2.628165 H        1 UNL1     0.0789
     41 H         -6.116638   -6.672374   0.988086 H        1 UNL1     0.0623
     42 H         -5.390741   -7.403813   -1.248038 H        1 UNL1     0.0654
     43 H         -2.101384   -4.645886   -1.095216 H        1 UNL1     0.0654
     44 H         -2.814177   -3.877074   1.097228 H        1 UNL1     0.0623
     45 H         -3.67299   -5.95009   -3.201541 H        1 UNL1     0.2921
     46 H         -0.815029   -6.128066   4.59818 H        1 UNL1     0.2922
     47 H         -1.059689   -2.243754   0.38602 H        1 UNL1     0.2126
     48 H         -0.843448   2.09055   -0.551217 H        1 UNL1     0.2101
     49 H         0.926259   0.014223   2.675175 H        1 UNL1     0.2100
     50 H         -1.592716   3.2892   1.844558 H        1 UNL1     0.2102
@<TRIPOS>BOND
     1     1     2    1
     2     1     6    1
     3     2     3    1
     4     3     4    1
     5     3    29    1
     6     3    33    1
     7     4     5    1
     8     5     6    1
     9     5     7    1
    10     5    35    1
    11     7     8    1
    12     8     9   ar
    13     8    13   ar
    14     9    10   ar
    15     9    36    1
    16    10    11   ar
    17    10    26    1
    18    11    12   ar
    19    11    14    1
    20    12    13   ar
    21    12    17    1
    22    13    37    1
    23    14    15    1
    24    14    25    2
    25    15    16    1
    26    15    38    1
    27    15    39    1
    28    16    17    1
    29    16    18    1
    30    16    40    1
    31    18    19   ar
    32    18    23   ar
    33    19    20   ar
    34    19    41    1
    35    20    21   ar
    36    20    42    1
    37    21    22   ar
    38    21    24    1
    39    22    23   ar
    40    22    43    1
    41    23    44    1
    42    24    45    1
    43    26    46    1
    44    27    47    1
    45    28    48    1
    46    29    49    1
    47    30    50    1
    48     1    31    1
    49     1    27    1
    50     2    32    1
    51     2    28    1
    52     4    34    1
    53     4    30    1
