@<TRIPOS>MOLECULE
*****
 50 53 0 0 0
SMALL
GASTEIGER

@<TRIPOS>ATOM
     1 C         0.58921   -2.024728   0.569309 C.3        1 UNL1     0.1889
     2 C         -0.291829   -1.031157   -0.234761 C.3        1 UNL1     0.1342
     3 C         -1.803564   -1.187676   -0.009762 C.3        1 UNL1     0.1174
     4 C         -2.223477   -2.643345   0.208915 C.3        1 UNL1     0.1456
     5 C         -1.313363   -3.375902   1.21162 C.3        1 UNL1     0.2326
     6 O         0.041108   -3.319224   0.769959 O.3        1 UNL1     -0.3076
     7 O         -1.484474   -2.933374   2.570373 O.3        1 UNL1     -0.4605
     8 C         -1.28808   -3.891003   3.549099 C.ar        1 UNL1     0.1310
     9 C         -1.79621   -5.194203   3.521269 C.ar        1 UNL1     0.0226
     10 C         -1.526722   -6.098326   4.555601 C.ar        1 UNL1     0.1343
     11 C         -0.722036   -5.728207   5.632324 C.ar        1 UNL1     0.1007
     12 C         -0.242744   -4.416889   5.691542 C.ar        1 UNL1     0.1389
     13 C         -0.51604   -3.507182   4.652709 C.ar        1 UNL1     0.0229
     14 C         -0.336375   -6.668387   6.710045 C.2        1 UNL1     0.1740
     15 C         0.709337   -6.169435   7.663504 C.3        1 UNL1     0.0520
     16 C         0.426229   -4.704309   7.965517 C.3        1 UNL1     0.1322
     17 O         0.467851   -3.914238   6.756748 O.3        1 UNL1     -0.4828
     18 C         -0.819986   -4.48219   8.825945 C.ar        1 UNL1     -0.0067
     19 C         -1.093906   -3.193533   9.328483 C.ar        1 UNL1     -0.0516
     20 C         -2.198919   -2.965666   10.157329 C.ar        1 UNL1     -0.0198
     21 C         -3.031538   -4.017216   10.496173 C.ar        1 UNL1     0.1169
     22 C         -2.806967   -5.290827   9.989888 C.ar        1 UNL1     -0.0198
     23 C         -1.712566   -5.515242   9.146099 C.ar        1 UNL1     -0.0516
     24 O         -4.076099   -3.764783   11.336154 O.3        1 UNL1     -0.5068
     25 O         -0.768368   -7.815074   6.793566 O.2        1 UNL1     -0.2917
     26 O         -2.053244   -7.354035   4.468687 O.3        1 UNL1     -0.5058
     27 O         1.099593   -1.479351   1.775485 O.3        1 UNL1     -0.3648
     28 O         -0.044274   -1.234837   -1.638305 O.3        1 UNL1     -0.3841
     29 O         -2.253718   -0.319334   1.032099 O.3        1 UNL1     -0.3863
     30 O         -2.181106   -3.343381   -1.05356 O.3        1 UNL1     -0.3829
     31 H         1.480299   -2.215387   -0.038709 H        1 UNL1     0.0937
     32 H         0.0   0.0   0.0 H        1 UNL1     0.0671
     33 H         -2.315431   -0.842403   -0.918882 H        1 UNL1     0.0649
     34 H         -3.259264   -2.684528   0.563666 H        1 UNL1     0.0683
     35 H         -1.629086   -4.424163   1.138504 H        1 UNL1     0.1085
     36 H         -2.381793   -5.560167   2.685038 H        1 UNL1     0.0691
     37 H         -0.132125   -2.491731   4.723147 H        1 UNL1     0.0691
     38 H         1.684187   -6.291714   7.179518 H        1 UNL1     0.0385
     39 H         0.695968   -6.788522   8.567014 H        1 UNL1     0.0385
     40 H         1.265364   -4.329836   8.5673 H        1 UNL1     0.0789
     41 H         -0.45031   -2.353331   9.084564 H        1 UNL1     0.0623
     42 H         -2.392738   -1.969821   10.548147 H        1 UNL1     0.0654
     43 H         -3.461297   -6.118383   10.236695 H        1 UNL1     0.0654
     44 H         -1.573318   -6.520532   8.760292 H        1 UNL1     0.0623
     45 H         -3.718591   -3.509984   12.202169 H        1 UNL1     0.2921
     46 H         -1.341203   -8.009133   4.541193 H        1 UNL1     0.2922
     47 H         1.576425   -0.657051   1.595726 H        1 UNL1     0.2126
     48 H         0.844501   -0.873608   -1.820858 H        1 UNL1     0.2101
     49 H         -2.383461   0.576463   0.682086 H        1 UNL1     0.2100
     50 H         -2.884602   -2.974254   -1.626754 H        1 UNL1     0.2102
@<TRIPOS>BOND
     1     1     2    1
     2     1     6    1
     3     2     3    1
     4     3     4    1
     5     3    29    1
     6     3    33    1
     7     4     5    1
     8     5     6    1
     9     5     7    1
    10     5    35    1
    11     7     8    1
    12     8     9   ar
    13     8    13   ar
    14     9    10   ar
    15     9    36    1
    16    10    11   ar
    17    10    26    1
    18    11    12   ar
    19    11    14    1
    20    12    13   ar
    21    12    17    1
    22    13    37    1
    23    14    15    1
    24    14    25    2
    25    15    16    1
    26    15    38    1
    27    15    39    1
    28    16    17    1
    29    16    18    1
    30    16    40    1
    31    18    19   ar
    32    18    23   ar
    33    19    20   ar
    34    19    41    1
    35    20    21   ar
    36    20    42    1
    37    21    22   ar
    38    21    24    1
    39    22    23   ar
    40    22    43    1
    41    23    44    1
    42    24    45    1
    43    26    46    1
    44    27    47    1
    45    28    48    1
    46    29    49    1
    47    30    50    1
    48     1    31    1
    49     1    27    1
    50     2    32    1
    51     2    28    1
    52     4    34    1
    53     4    30    1
