@<TRIPOS>MOLECULE
*****
 50 53 0 0 0
SMALL
GASTEIGER

@<TRIPOS>ATOM
     1 C         -0.330077   -1.327082   1.703146 C.3        1 UNL1     0.1889
     2 C         -0.461519   -0.975623   0.19678 C.3        1 UNL1     0.1342
     3 C         -1.9026   -0.964816   -0.335795 C.3        1 UNL1     0.1174
     4 C         -2.787688   -2.024254   0.325513 C.3        1 UNL1     0.1456
     5 C         -2.635373   -2.04808   1.857373 C.3        1 UNL1     0.2326
     6 O         -1.270134   -2.264654   2.206779 O.3        1 UNL1     -0.3076
     7 O         -3.211009   -0.900946   2.508562 O.3        1 UNL1     -0.4605
     8 C         -4.561549   -0.694883   2.29152 C.ar        1 UNL1     0.1310
     9 C         -5.202381   -0.763001   1.049749 C.ar        1 UNL1     0.0226
     10 C         -6.582016   -0.554855   0.934916 C.ar        1 UNL1     0.1343
     11 C         -7.358885   -0.296798   2.063508 C.ar        1 UNL1     0.1007
     12 C         -6.723998   -0.185739   3.303414 C.ar        1 UNL1     0.1389
     13 C         -5.33637   -0.392456   3.418245 C.ar        1 UNL1     0.0229
     14 C         -8.83213   -0.15202   2.011129 C.2        1 UNL1     0.1740
     15 C         -9.527226   -0.101558   3.33998 C.3        1 UNL1     0.0520
     16 C         -8.689777   0.743517   4.289972 C.3        1 UNL1     0.1322
     17 O         -7.374601   0.170917   4.461766 O.3        1 UNL1     -0.4828
     18 C         -8.692507   2.236316   3.951935 C.ar        1 UNL1     -0.0067
     19 C         -7.46918   2.93489   3.891276 C.ar        1 UNL1     -0.0516
     20 C         -7.439499   4.310244   3.631499 C.ar        1 UNL1     -0.0198
     21 C         -8.624045   4.998265   3.438351 C.ar        1 UNL1     0.1169
     22 C         -9.842382   4.331877   3.458823 C.ar        1 UNL1     -0.0198
     23 C         -9.871164   2.953137   3.700282 C.ar        1 UNL1     -0.0516
     24 O         -8.558147   6.34388   3.225326 O.3        1 UNL1     -0.5068
     25 O         -9.474713   -0.152059   0.964434 O.2        1 UNL1     -0.2917
     26 O         -7.145658   -0.634068   -0.305092 O.3        1 UNL1     -0.5058
     27 O         -0.225375   -0.188012   2.542399 O.3        1 UNL1     -0.3648
     28 O         0.269512   -1.954113   -0.565359 O.3        1 UNL1     -0.3841
     29 O         -2.461133   0.348392   -0.260567 O.3        1 UNL1     -0.3863
     30 O         -2.439256   -3.325222   -0.195801 O.3        1 UNL1     -0.3829
     31 H         0.631081   -1.839016   1.822219 H        1 UNL1     0.0937
     32 H         0.0   0.0   0.0 H        1 UNL1     0.0671
     33 H         -1.865859   -1.205296   -1.407494 H        1 UNL1     0.0649
     34 H         -3.838077   -1.847049   0.069227 H        1 UNL1     0.0683
     35 H         -3.189185   -2.944145   2.164358 H        1 UNL1     0.1085
     36 H         -4.663429   -1.014932   0.143007 H        1 UNL1     0.0691
     37 H         -4.865928   -0.299285   4.394717 H        1 UNL1     0.0691
     38 H         -9.620443   -1.130221   3.704246 H        1 UNL1     0.0385
     39 H         -10.534887   0.305338   3.202743 H        1 UNL1     0.0385
     40 H         -9.153258   0.669605   5.283069 H        1 UNL1     0.0789
     41 H         -6.526226   2.419342   4.048432 H        1 UNL1     0.0623
     42 H         -6.490577   4.839871   3.599047 H        1 UNL1     0.0654
     43 H         -10.774962   4.858201   3.293938 H        1 UNL1     0.0654
     44 H         -10.839889   2.462816   3.698749 H        1 UNL1     0.0623
     45 H         -8.143854   6.757123   4.000122 H        1 UNL1     0.2921
     46 H         -7.850898   -1.300398   -0.297931 H        1 UNL1     0.2922
     47 H         0.517109   0.366026   2.263795 H        1 UNL1     0.2126
     48 H         1.20238   -1.887719   -0.284146 H        1 UNL1     0.2101
     49 H         -2.022995   0.93058   -0.901571 H        1 UNL1     0.2100
     50 H         -2.672922   -3.341331   -1.147039 H        1 UNL1     0.2102
@<TRIPOS>BOND
     1     1     2    1
     2     1     6    1
     3     2     3    1
     4     3     4    1
     5     3    29    1
     6     3    33    1
     7     4     5    1
     8     5     6    1
     9     5     7    1
    10     5    35    1
    11     7     8    1
    12     8     9   ar
    13     8    13   ar
    14     9    10   ar
    15     9    36    1
    16    10    11   ar
    17    10    26    1
    18    11    12   ar
    19    11    14    1
    20    12    13   ar
    21    12    17    1
    22    13    37    1
    23    14    15    1
    24    14    25    2
    25    15    16    1
    26    15    38    1
    27    15    39    1
    28    16    17    1
    29    16    18    1
    30    16    40    1
    31    18    19   ar
    32    18    23   ar
    33    19    20   ar
    34    19    41    1
    35    20    21   ar
    36    20    42    1
    37    21    22   ar
    38    21    24    1
    39    22    23   ar
    40    22    43    1
    41    23    44    1
    42    24    45    1
    43    26    46    1
    44    27    47    1
    45    28    48    1
    46    29    49    1
    47    30    50    1
    48     1    31    1
    49     1    27    1
    50     2    32    1
    51     2    28    1
    52     4    34    1
    53     4    30    1
