@<TRIPOS>MOLECULE
*****
 50 53 0 0 0
SMALL
GASTEIGER

@<TRIPOS>ATOM
     1 C         -0.350249   -1.338542   1.690099 C.3        1 UNL1     0.1889
     2 C         -0.471568   -0.972877   0.186267 C.3        1 UNL1     0.1342
     3 C         -1.910062   -0.943855   -0.352583 C.3        1 UNL1     0.1174
     4 C         -2.808064   -2.000543   0.295583 C.3        1 UNL1     0.1456
     5 C         -2.662905   -2.039018   1.82784 C.3        1 UNL1     0.2326
     6 O         -1.301358   -2.271495   2.181411 O.3        1 UNL1     -0.3076
     7 O         -3.230652   -0.892153   2.486386 O.3        1 UNL1     -0.4605
     8 C         -3.757768   -1.11546   3.745676 C.ar        1 UNL1     0.1310
     9 C         -4.592014   -2.182026   4.097488 C.ar        1 UNL1     0.0226
     10 C         -5.062001   -2.331571   5.407698 C.ar        1 UNL1     0.1343
     11 C         -4.689453   -1.430543   6.404291 C.ar        1 UNL1     0.1007
     12 C         -3.890121   -0.338471   6.056112 C.ar        1 UNL1     0.1389
     13 C         -3.419835   -0.186856   4.738054 C.ar        1 UNL1     0.0229
     14 C         -5.08846   -1.587684   7.822126 C.2        1 UNL1     0.1740
     15 C         -4.418584   -0.659041   8.791888 C.3        1 UNL1     0.0520
     16 C         -4.324193   0.719326   8.152238 C.3        1 UNL1     0.1322
     17 O         -3.552187   0.666718   6.932276 O.3        1 UNL1     -0.4828
     18 C         -5.672959   1.430571   8.019255 C.ar        1 UNL1     -0.0067
     19 C         -6.02288   2.02764   6.790728 C.ar        1 UNL1     -0.0516
     20 C         -7.227625   2.726565   6.64911 C.ar        1 UNL1     -0.0198
     21 C         -8.085671   2.841566   7.728164 C.ar        1 UNL1     0.1169
     22 C         -7.784366   2.236039   8.941173 C.ar        1 UNL1     -0.0198
     23 C         -6.58826   1.52138   9.077731 C.ar        1 UNL1     -0.0516
     24 O         -9.232162   3.561875   7.5635 O.3        1 UNL1     -0.5068
     25 O         -5.853166   -2.464311   8.216124 O.2        1 UNL1     -0.2917
     26 O         -5.87328   -3.392906   5.685149 O.3        1 UNL1     -0.5058
     27 O         -0.238622   -0.207794   2.539648 O.3        1 UNL1     -0.3648
     28 O         0.253655   -1.951625   -0.581072 O.3        1 UNL1     -0.3841
     29 O         -2.456541   0.373876   -0.268456 O.3        1 UNL1     -0.3863
     30 O         -2.469544   -3.300202   -0.235435 O.3        1 UNL1     -0.3829
     31 H         0.605498   -1.860547   1.808995 H        1 UNL1     0.0937
     32 H         0.0   0.0   0.0 H        1 UNL1     0.0671
     33 H         -1.870744   -1.17542   -1.426153 H        1 UNL1     0.0649
     34 H         -3.855569   -1.811212   0.036184 H        1 UNL1     0.0683
     35 H         -3.22651   -2.932422   2.124586 H        1 UNL1     0.1085
     36 H         -4.872154   -2.946998   3.381625 H        1 UNL1     0.0691
     37 H         -2.799817   0.672638   4.492412 H        1 UNL1     0.0691
     38 H         -3.423756   -1.064384   9.005291 H        1 UNL1     0.0385
     39 H         -4.989338   -0.643507   9.726648 H        1 UNL1     0.0385
     40 H         -3.728794   1.349217   8.826966 H        1 UNL1     0.0789
     41 H         -5.362233   1.959402   5.931345 H        1 UNL1     0.0623
     42 H         -7.480642   3.192702   5.700052 H        1 UNL1     0.0654
     43 H         -8.456163   2.307084   9.788257 H        1 UNL1     0.0654
     44 H         -6.389901   1.052143   10.036541 H        1 UNL1     0.0623
     45 H         -8.990915   4.47995   7.359406 H        1 UNL1     0.2921
     46 H         -5.485022   -3.917992   6.402752 H        1 UNL1     0.2922
     47 H         0.504302   0.3467   2.263132 H        1 UNL1     0.2126
     48 H         1.192677   -1.866777   -0.32657 H        1 UNL1     0.2101
     49 H         -2.01595   0.955339   -0.908436 H        1 UNL1     0.2100
     50 H         -2.70429   -3.307789   -1.186513 H        1 UNL1     0.2102
@<TRIPOS>BOND
     1     1     2    1
     2     1     6    1
     3     2     3    1
     4     3     4    1
     5     3    29    1
     6     3    33    1
     7     4     5    1
     8     5     6    1
     9     5     7    1
    10     5    35    1
    11     7     8    1
    12     8     9   ar
    13     8    13   ar
    14     9    10   ar
    15     9    36    1
    16    10    11   ar
    17    10    26    1
    18    11    12   ar
    19    11    14    1
    20    12    13   ar
    21    12    17    1
    22    13    37    1
    23    14    15    1
    24    14    25    2
    25    15    16    1
    26    15    38    1
    27    15    39    1
    28    16    17    1
    29    16    18    1
    30    16    40    1
    31    18    19   ar
    32    18    23   ar
    33    19    20   ar
    34    19    41    1
    35    20    21   ar
    36    20    42    1
    37    21    22   ar
    38    21    24    1
    39    22    23   ar
    40    22    43    1
    41    23    44    1
    42    24    45    1
    43    26    46    1
    44    27    47    1
    45    28    48    1
    46    29    49    1
    47    30    50    1
    48     1    31    1
    49     1    27    1
    50     2    32    1
    51     2    28    1
    52     4    34    1
    53     4    30    1
