@<TRIPOS>MOLECULE
*****
 50 53 0 0 0
SMALL
GASTEIGER

@<TRIPOS>ATOM
     1 C         -0.326366   -1.366659   1.672283 C.3        1 UNL1     0.1889
     2 C         -0.462093   -0.979479   0.175083 C.3        1 UNL1     0.1342
     3 C         -1.904818   -0.954411   -0.352533 C.3        1 UNL1     0.1174
     4 C         -2.789126   -2.028195   0.286298 C.3        1 UNL1     0.1456
     5 C         -2.632048   -2.088462   1.816676 C.3        1 UNL1     0.2326
     6 O         -1.265987   -2.314815   2.156544 O.3        1 UNL1     -0.3076
     7 O         -3.204241   -0.956409   2.496656 O.3        1 UNL1     -0.4605
     8 C         -3.719937   -1.203009   3.756328 C.ar        1 UNL1     0.1310
     9 C         -4.542656   -2.281685   4.098223 C.ar        1 UNL1     0.0226
     10 C         -5.00145   -2.45482   5.409495 C.ar        1 UNL1     0.1343
     11 C         -4.628815   -1.565773   6.416759 C.ar        1 UNL1     0.1007
     12 C         -3.841191   -0.461942   6.079141 C.ar        1 UNL1     0.1389
     13 C         -3.382174   -0.286617   4.760052 C.ar        1 UNL1     0.0229
     14 C         -5.015755   -1.747526   7.834997 C.2        1 UNL1     0.1740
     15 C         -4.346243   -0.827976   8.813634 C.3        1 UNL1     0.0520
     16 C         -4.268088   0.560584   8.194158 C.3        1 UNL1     0.1322
     17 O         -3.50494   0.532769   6.967822 O.3        1 UNL1     -0.4828
     18 C         -5.623651   1.26243   8.081972 C.ar        1 UNL1     -0.0067
     19 C         -5.98779   1.874931   6.865231 C.ar        1 UNL1     -0.0516
     20 C         -7.199305   2.565794   6.743151 C.ar        1 UNL1     -0.0198
     21 C         -8.050071   2.657389   7.830182 C.ar        1 UNL1     0.1169
     22 C         -7.734591   2.036257   9.031642 C.ar        1 UNL1     -0.0198
     23 C         -6.531624   1.329665   9.148489 C.ar        1 UNL1     -0.0516
     24 O         -9.203686   3.370466   7.684948 O.3        1 UNL1     -0.5068
     25 O         -5.770188   -2.636342   8.221418 O.2        1 UNL1     -0.2917
     26 O         -5.80181   -3.526957   5.676946 O.3        1 UNL1     -0.5058
     27 O         -0.217646   -0.247902   2.537934 O.3        1 UNL1     -0.3648
     28 O         0.265354   -1.940486   -0.612313 O.3        1 UNL1     -0.3841
     29 O         -2.461509   0.357287   -0.244472 O.3        1 UNL1     -0.3863
     30 O         -2.443917   -3.316852   -0.266768 O.3        1 UNL1     -0.3829
     31 H         0.634534   -1.882371   1.776167 H        1 UNL1     0.0937
     32 H         0.0   0.0   0.0 H        1 UNL1     0.0671
     33 H         -1.871726   -1.169489   -1.429736 H        1 UNL1     0.0649
     34 H         -3.840095   -1.843765   0.037598 H        1 UNL1     0.0683
     35 H         -3.185991   -2.990908   2.104107 H        1 UNL1     0.1085
     36 H         -4.821886   -3.038138   3.373012 H        1 UNL1     0.0691
     37 H         -2.771155   0.58163   4.522786 H        1 UNL1     0.0691
     38 H         -3.346512   -1.228136   9.01348 H        1 UNL1     0.0385
     39 H         -4.910006   -0.831262   9.752749 H        1 UNL1     0.0385
     40 H         -3.672815   1.185233   8.873853 H        1 UNL1     0.0789
     41 H         -5.333133   1.825141   6.000017 H        1 UNL1     0.0623
     42 H         -7.463347   3.043997   5.803143 H        1 UNL1     0.0654
     43 H         -8.400514   2.088944   9.884684 H        1 UNL1     0.0654
     44 H         -6.322137   0.847759   10.098609 H        1 UNL1     0.0623
     45 H         -8.971582   4.29349   7.49293 H        1 UNL1     0.2921
     46 H         -5.403803   -4.059492   6.383635 H        1 UNL1     0.2922
     47 H         0.511626   0.322628   2.257725 H        1 UNL1     0.2126
     48 H         1.205544   -1.851612   -0.363565 H        1 UNL1     0.2101
     49 H         -2.030597   0.951964   -0.878876 H        1 UNL1     0.2100
     50 H         -2.685793   -3.31212   -1.216076 H        1 UNL1     0.2102
@<TRIPOS>BOND
     1     1     2    1
     2     1     6    1
     3     2     3    1
     4     3     4    1
     5     3    29    1
     6     3    33    1
     7     4     5    1
     8     5     6    1
     9     5     7    1
    10     5    35    1
    11     7     8    1
    12     8     9   ar
    13     8    13   ar
    14     9    10   ar
    15     9    36    1
    16    10    11   ar
    17    10    26    1
    18    11    12   ar
    19    11    14    1
    20    12    13   ar
    21    12    17    1
    22    13    37    1
    23    14    15    1
    24    14    25    2
    25    15    16    1
    26    15    38    1
    27    15    39    1
    28    16    17    1
    29    16    18    1
    30    16    40    1
    31    18    19   ar
    32    18    23   ar
    33    19    20   ar
    34    19    41    1
    35    20    21   ar
    36    20    42    1
    37    21    22   ar
    38    21    24    1
    39    22    23   ar
    40    22    43    1
    41    23    44    1
    42    24    45    1
    43    26    46    1
    44    27    47    1
    45    28    48    1
    46    29    49    1
    47    30    50    1
    48     1    31    1
    49     1    27    1
    50     2    32    1
    51     2    28    1
    52     4    34    1
    53     4    30    1
