@<TRIPOS>MOLECULE
*****
 50 53 0 0 0
SMALL
GASTEIGER

@<TRIPOS>ATOM
     1 C         -1.022944   1.915101   -0.23828 C.3        1 UNL1     0.1889
     2 C         -0.216566   0.890048   0.603718 C.3        1 UNL1     0.1342
     3 C         -0.898445   0.455632   1.91016 C.3        1 UNL1     0.1174
     4 C         -1.70091   1.583187   2.564213 C.3        1 UNL1     0.1456
     5 C         -2.590272   2.335459   1.557492 C.3        1 UNL1     0.2326
     6 O         -1.791486   2.855715   0.497236 O.3        1 UNL1     -0.3076
     7 O         -3.711963   1.562043   1.093856 O.3        1 UNL1     -0.4605
     8 C         -4.856804   2.276536   0.789938 C.ar        1 UNL1     0.1310
     9 C         -5.594729   3.04774   1.694378 C.ar        1 UNL1     0.0226
     10 C         -6.734169   3.750554   1.284951 C.ar        1 UNL1     0.1343
     11 C         -7.150085   3.718284   -0.045392 C.ar        1 UNL1     0.1007
     12 C         -6.445086   2.918833   -0.949073 C.ar        1 UNL1     0.1389
     13 C         -5.300955   2.210143   -0.536577 C.ar        1 UNL1     0.0229
     14 C         -8.297132   4.508157   -0.549908 C.2        1 UNL1     0.1740
     15 C         -8.465483   4.528997   -2.040805 C.3        1 UNL1     0.0520
     16 C         -8.177882   3.133646   -2.577683 C.3        1 UNL1     0.1322
     17 O         -6.82896   2.728492   -2.256237 O.3        1 UNL1     -0.4828
     18 C         -9.251781   2.102879   -2.22133 C.ar        1 UNL1     -0.0067
     19 C         -10.408439   2.518503   -1.530234 C.ar        1 UNL1     -0.0516
     20 C         -11.387598   1.594012   -1.147449 C.ar        1 UNL1     -0.0198
     21 C         -11.218706   0.253072   -1.442716 C.ar        1 UNL1     0.1169
     22 C         -10.106513   -0.18214   -2.151559 C.ar        1 UNL1     -0.0198
     23 C         -9.136102   0.744731   -2.550642 C.ar        1 UNL1     -0.0516
     24 O         -12.175028   -0.623179   -1.020776 O.3        1 UNL1     -0.5068
     25 O         -9.029024   5.176527   0.17542 O.2        1 UNL1     -0.2917
     26 O         -7.409949   4.483278   2.216629 O.3        1 UNL1     -0.5058
     27 O         -1.780456   1.319891   -1.279764 O.3        1 UNL1     -0.3648
     28 O         1.046936   1.483118   0.956616 O.3        1 UNL1     -0.3841
     29 O         -1.671605   -0.729214   1.708926 O.3        1 UNL1     -0.3863
     30 O         -0.78834   2.523943   3.170748 O.3        1 UNL1     -0.3829
     31 H         -0.288352   2.537436   -0.76092 H        1 UNL1     0.0937
     32 H         0.0   -0.0   0.0 H        1 UNL1     0.0671
     33 H         -0.110288   0.172376   2.621704 H        1 UNL1     0.0649
     34 H         -2.32632   1.179474   3.368128 H        1 UNL1     0.0683
     35 H         -2.964626   3.195688   2.126477 H        1 UNL1     0.1085
     36 H         -5.291262   3.158405   2.729647 H        1 UNL1     0.0691
     37 H         -4.770319   1.593997   -1.259268 H        1 UNL1     0.0691
     38 H         -7.757435   5.260949   -2.443844 H        1 UNL1     0.0385
     39 H         -9.479571   4.864882   -2.282849 H        1 UNL1     0.0385
     40 H         -8.190841   3.199616   -3.674041 H        1 UNL1     0.0789
     41 H         -10.560076   3.56414   -1.278641 H        1 UNL1     0.0623
     42 H         -12.26937   1.925227   -0.604506 H        1 UNL1     0.0654
     43 H         -9.971599   -1.227793   -2.401197 H        1 UNL1     0.0654
     44 H         -8.285212   0.371153   -3.112132 H        1 UNL1     0.0623
     45 H         -12.207864   -0.59763   -0.050731 H        1 UNL1     0.2921
     46 H         -7.740325   5.299394   1.80893 H        1 UNL1     0.2922
     47 H         -2.04729   1.989816   -1.924637 H        1 UNL1     0.2126
     48 H         1.214145   1.250323   1.8902 H        1 UNL1     0.2101
     49 H         -2.604826   -0.496349   1.579833 H        1 UNL1     0.2100
     50 H         -0.722991   3.303552   2.581128 H        1 UNL1     0.2102
@<TRIPOS>BOND
     1     1     2    1
     2     1     6    1
     3     2     3    1
     4     3     4    1
     5     3    29    1
     6     3    33    1
     7     4     5    1
     8     5     6    1
     9     5     7    1
    10     5    35    1
    11     7     8    1
    12     8     9   ar
    13     8    13   ar
    14     9    10   ar
    15     9    36    1
    16    10    11   ar
    17    10    26    1
    18    11    12   ar
    19    11    14    1
    20    12    13   ar
    21    12    17    1
    22    13    37    1
    23    14    15    1
    24    14    25    2
    25    15    16    1
    26    15    38    1
    27    15    39    1
    28    16    17    1
    29    16    18    1
    30    16    40    1
    31    18    19   ar
    32    18    23   ar
    33    19    20   ar
    34    19    41    1
    35    20    21   ar
    36    20    42    1
    37    21    22   ar
    38    21    24    1
    39    22    23   ar
    40    22    43    1
    41    23    44    1
    42    24    45    1
    43    26    46    1
    44    27    47    1
    45    28    48    1
    46    29    49    1
    47    30    50    1
    48     1    31    1
    49     1    27    1
    50     2    32    1
    51     2    28    1
    52     4    34    1
    53     4    30    1
