@<TRIPOS>MOLECULE
*****
 50 53 0 0 0
SMALL
GASTEIGER

@<TRIPOS>ATOM
     1 C         -0.531762   -1.257586   1.704849 C.3        1 UNL1     0.1889
     2 C         -0.524072   -0.946064   0.184048 C.3        1 UNL1     0.1342
     3 C         -1.915383   -0.882613   -0.464559 C.3        1 UNL1     0.1174
     4 C         -2.902617   -1.878059   0.149912 C.3        1 UNL1     0.1456
     5 C         -2.875181   -1.862696   1.689189 C.3        1 UNL1     0.2326
     6 O         -1.554959   -2.133515   2.154528 O.3        1 UNL1     -0.3076
     7 O         -3.443117   -0.670181   2.260745 O.3        1 UNL1     -0.4605
     8 C         -4.072509   -0.824082   3.482919 C.ar        1 UNL1     0.1310
     9 C         -4.966295   -1.849261   3.810722 C.ar        1 UNL1     0.0226
     10 C         -5.540216   -1.929062   5.085143 C.ar        1 UNL1     0.1343
     11 C         -5.215555   -0.99829   6.071094 C.ar        1 UNL1     0.1007
     12 C         -4.35599   0.053564   5.743167 C.ar        1 UNL1     0.1389
     13 C         -3.7811   0.135091   4.46087 C.ar        1 UNL1     0.0229
     14 C         -5.727261   -1.083258   7.45857 C.2        1 UNL1     0.1740
     15 C         -5.103337   -0.134978   8.439912 C.3        1 UNL1     0.0520
     16 C         -4.914343   1.211641   7.75518 C.3        1 UNL1     0.1322
     17 O         -4.053112   1.084303   6.602299 O.3        1 UNL1     -0.4828
     18 C         -6.224527   1.956835   7.489043 C.ar        1 UNL1     -0.0067
     19 C         -6.228176   3.0586   6.609093 C.ar        1 UNL1     -0.0516
     20 C         -7.398999   3.791238   6.38023 C.ar        1 UNL1     -0.0198
     21 C         -8.568288   3.437498   7.02943 C.ar        1 UNL1     0.1169
     22 C         -8.604115   2.337085   7.875979 C.ar        1 UNL1     -0.0198
     23 C         -7.437779   1.593056   8.090773 C.ar        1 UNL1     -0.0516
     24 O         -9.679689   4.197399   6.810939 O.3        1 UNL1     -0.5068
     25 O         -6.548678   -1.919059   7.826259 O.2        1 UNL1     -0.2917
     26 O         -6.405232   -2.952853   5.340455 O.3        1 UNL1     -0.5058
     27 O         -0.437917   -0.099905   2.51956 O.3        1 UNL1     -0.3648
     28 O         0.215911   -1.980987   -0.489796 O.3        1 UNL1     -0.3841
     29 O         -2.411736   0.457439   -0.469815 O.3        1 UNL1     -0.3863
     30 O         -2.578992   -3.209378   -0.306756 O.3        1 UNL1     -0.3829
     31 H         0.389905   -1.810981   1.915476 H        1 UNL1     0.0937
     32 H         0.0   0.0   0.0 H        1 UNL1     0.0671
     33 H         -1.804788   -1.15694   -1.52297 H        1 UNL1     0.0649
     34 H         -3.918848   -1.658755   -0.195895 H        1 UNL1     0.0683
     35 H         -3.495999   -2.721583   1.973401 H        1 UNL1     0.1085
     36 H         -5.215908   -2.635063   3.106216 H        1 UNL1     0.0691
     37 H         -3.115825   0.964406   4.230349 H        1 UNL1     0.0691
     38 H         -4.141858   -0.560644   8.746332 H        1 UNL1     0.0385
     39 H         -5.743354   -0.062775   9.325882 H        1 UNL1     0.0385
     40 H         -4.351909   1.85133   8.448711 H        1 UNL1     0.0789
     41 H         -5.321148   3.361992   6.094403 H        1 UNL1     0.0623
     42 H         -7.386208   4.646067   5.70858 H        1 UNL1     0.0654
     43 H         -9.517951   2.042191   8.377828 H        1 UNL1     0.0654
     44 H         -7.50459   0.733134   8.750254 H        1 UNL1     0.0623
     45 H         -9.518285   5.086255   7.16675 H        1 UNL1     0.2921
     46 H         -6.102834   -3.445104   6.119979 H        1 UNL1     0.2922
     47 H         0.339959   0.420162   2.273998 H        1 UNL1     0.2126
     48 H         1.157392   -1.837832   -0.273339 H        1 UNL1     0.2101
     49 H         -2.026625   0.949095   -1.21262 H        1 UNL1     0.2100
     50 H         -2.762928   -3.251413   -1.268064 H        1 UNL1     0.2102
@<TRIPOS>BOND
     1     1     2    1
     2     1     6    1
     3     2     3    1
     4     3     4    1
     5     3    29    1
     6     3    33    1
     7     4     5    1
     8     5     6    1
     9     5     7    1
    10     5    35    1
    11     7     8    1
    12     8     9   ar
    13     8    13   ar
    14     9    10   ar
    15     9    36    1
    16    10    11   ar
    17    10    26    1
    18    11    12   ar
    19    11    14    1
    20    12    13   ar
    21    12    17    1
    22    13    37    1
    23    14    15    1
    24    14    25    2
    25    15    16    1
    26    15    38    1
    27    15    39    1
    28    16    17    1
    29    16    18    1
    30    16    40    1
    31    18    19   ar
    32    18    23   ar
    33    19    20   ar
    34    19    41    1
    35    20    21   ar
    36    20    42    1
    37    21    22   ar
    38    21    24    1
    39    22    23   ar
    40    22    43    1
    41    23    44    1
    42    24    45    1
    43    26    46    1
    44    27    47    1
    45    28    48    1
    46    29    49    1
    47    30    50    1
    48     1    31    1
    49     1    27    1
    50     2    32    1
    51     2    28    1
    52     4    34    1
    53     4    30    1
