@<TRIPOS>MOLECULE
*****
 50 53 0 0 0
SMALL
GASTEIGER

@<TRIPOS>ATOM
     1 C         -0.30953   -1.366485   1.675624 C.3        1 UNL1     0.1889
     2 C         -0.464266   -0.977418   0.180758 C.3        1 UNL1     0.1342
     3 C         -1.914069   -0.945058   -0.326674 C.3        1 UNL1     0.1174
     4 C         -2.79449   -2.015161   0.323601 C.3        1 UNL1     0.1456
     5 C         -2.616386   -2.077447   1.851594 C.3        1 UNL1     0.2326
     6 O         -1.246814   -2.310569   2.17221 O.3        1 UNL1     -0.3076
     7 O         -3.173649   -0.943256   2.540352 O.3        1 UNL1     -0.4605
     8 C         -3.672907   -1.188451   3.806902 C.ar        1 UNL1     0.1310
     9 C         -4.490241   -2.267317   4.1609 C.ar        1 UNL1     0.0226
     10 C         -4.932002   -2.438925   5.478208 C.ar        1 UNL1     0.1343
     11 C         -4.547217   -1.5481   6.479314 C.ar        1 UNL1     0.1007
     12 C         -3.764941   -0.444102   6.130006 C.ar        1 UNL1     0.1389
     13 C         -3.32306   -0.270315   4.804876 C.ar        1 UNL1     0.0229
     14 C         -4.915747   -1.728109   7.902667 C.2        1 UNL1     0.1740
     15 C         -4.234504   -0.806574   8.87129 C.3        1 UNL1     0.0520
     16 C         -4.165503   0.581147   8.248854 C.3        1 UNL1     0.1322
     17 O         -3.418151   0.552184   7.012854 O.3        1 UNL1     -0.4828
     18 C         -5.522996   1.281693   8.15308 C.ar        1 UNL1     -0.0067
     19 C         -5.655515   2.427036   7.341389 C.ar        1 UNL1     -0.0516
     20 C         -6.87027   3.119147   7.26849 C.ar        1 UNL1     -0.0198
     21 C         -7.955382   2.681276   8.006479 C.ar        1 UNL1     0.1169
     22 C         -7.865469   1.537325   8.788868 C.ar        1 UNL1     -0.0198
     23 C         -6.656131   0.834394   8.847575 C.ar        1 UNL1     -0.0516
     24 O         -9.111063   3.402623   7.939693 O.3        1 UNL1     -0.5068
     25 O         -5.664391   -2.616993   8.300036 O.2        1 UNL1     -0.2917
     26 O         -5.727941   -3.511341   5.757472 O.3        1 UNL1     -0.5058
     27 O         -0.18343   -0.248978   2.540531 O.3        1 UNL1     -0.3648
     28 O         0.247552   -1.941214   -0.617439 O.3        1 UNL1     -0.3841
     29 O         -2.462948   0.369179   -0.209858 O.3        1 UNL1     -0.3863
     30 O         -2.463162   -3.304983   -0.235211 O.3        1 UNL1     -0.3829
     31 H         0.650258   -1.886842   1.765706 H        1 UNL1     0.0937
     32 H         0.0   0.0   0.0 H        1 UNL1     0.0671
     33 H         -1.897018   -1.159395   -1.404398 H        1 UNL1     0.0649
     34 H         -3.847933   -1.825535   0.089718 H        1 UNL1     0.0683
     35 H         -3.170559   -2.977491   2.146028 H        1 UNL1     0.1085
     36 H         -4.778118   -3.025059   3.440432 H        1 UNL1     0.0691
     37 H         -2.715884   0.598097   4.558523 H        1 UNL1     0.0691
     38 H         -3.231946   -1.205604   9.058852 H        1 UNL1     0.0385
     39 H         -4.786152   -0.808963   9.817576 H        1 UNL1     0.0385
     40 H         -3.562082   1.207284   8.919939 H        1 UNL1     0.0789
     41 H         -4.815985   2.796206   6.759535 H        1 UNL1     0.0623
     42 H         -6.95646   4.007882   6.648222 H        1 UNL1     0.0654
     43 H         -8.713361   1.177013   9.3591 H        1 UNL1     0.0654
     44 H         -6.624666   -0.061128   9.460678 H        1 UNL1     0.0623
     45 H         -8.94927   4.277695   8.328008 H        1 UNL1     0.2921
     46 H         -5.331488   -4.030328   6.47503 H        1 UNL1     0.2922
     47 H         0.544573   0.318316   2.25062 H        1 UNL1     0.2126
     48 H         1.196011   -1.825944   -0.415275 H        1 UNL1     0.2101
     49 H         -2.038338   0.962249   -0.849989 H        1 UNL1     0.2100
     50 H         -2.738916   -3.306142   -1.175249 H        1 UNL1     0.2102
@<TRIPOS>BOND
     1     1     2    1
     2     1     6    1
     3     2     3    1
     4     3     4    1
     5     3    29    1
     6     3    33    1
     7     4     5    1
     8     5     6    1
     9     5     7    1
    10     5    35    1
    11     7     8    1
    12     8     9   ar
    13     8    13   ar
    14     9    10   ar
    15     9    36    1
    16    10    11   ar
    17    10    26    1
    18    11    12   ar
    19    11    14    1
    20    12    13   ar
    21    12    17    1
    22    13    37    1
    23    14    15    1
    24    14    25    2
    25    15    16    1
    26    15    38    1
    27    15    39    1
    28    16    17    1
    29    16    18    1
    30    16    40    1
    31    18    19   ar
    32    18    23   ar
    33    19    20   ar
    34    19    41    1
    35    20    21   ar
    36    20    42    1
    37    21    22   ar
    38    21    24    1
    39    22    23   ar
    40    22    43    1
    41    23    44    1
    42    24    45    1
    43    26    46    1
    44    27    47    1
    45    28    48    1
    46    29    49    1
    47    30    50    1
    48     1    31    1
    49     1    27    1
    50     2    32    1
    51     2    28    1
    52     4    34    1
    53     4    30    1
