@<TRIPOS>MOLECULE
*****
 50 53 0 0 0
SMALL
GASTEIGER

@<TRIPOS>ATOM
     1 C         0.655632   -1.914554   0.821848 C.3        1 UNL1     0.1889
     2 C         -0.314316   -0.703153   0.781244 C.3        1 UNL1     0.1342
     3 C         -0.450944   0.053781   2.111225 C.3        1 UNL1     0.1174
     4 C         -0.361689   -0.867557   3.330359 C.3        1 UNL1     0.1456
     5 C         0.81272   -1.85867   3.236432 C.3        1 UNL1     0.2326
     6 O         0.700268   -2.634087   2.045235 O.3        1 UNL1     -0.3076
     7 O         2.101579   -1.236136   3.386813 O.3        1 UNL1     -0.4605
     8 C         2.386951   -0.728589   4.641598 C.ar        1 UNL1     0.1310
     9 C         3.394806   0.197536   4.931117 C.ar        1 UNL1     0.0226
     10 C         3.594831   0.665447   6.235323 C.ar        1 UNL1     0.1343
     11 C         2.775611   0.236152   7.278599 C.ar        1 UNL1     0.1007
     12 C         1.792309   -0.719537   7.009226 C.ar        1 UNL1     0.1389
     13 C         1.593101   -1.191853   5.698248 C.ar        1 UNL1     0.0229
     14 C         2.888371   0.760829   8.659234 C.2        1 UNL1     0.1740
     15 C         1.789326   0.358778   9.598384 C.3        1 UNL1     0.0520
     16 C         1.445441   -1.101763   9.340467 C.3        1 UNL1     0.1322
     17 O         1.00159   -1.291334   7.978803 O.3        1 UNL1     -0.4828
     18 C         2.530921   -2.080061   9.795869 C.ar        1 UNL1     -0.0067
     19 C         2.169327   -3.210164   10.557664 C.ar        1 UNL1     -0.0516
     20 C         3.142151   -4.09912   11.030245 C.ar        1 UNL1     -0.0198
     21 C         4.47757   -3.865581   10.754669 C.ar        1 UNL1     0.1169
     22 C         4.861965   -2.779723   9.978788 C.ar        1 UNL1     -0.0198
     23 C         3.887758   -1.900761   9.490521 C.ar        1 UNL1     -0.0516
     24 O         5.399767   -4.732173   11.263562 O.3        1 UNL1     -0.5068
     25 O         3.768022   1.539865   9.016728 O.2        1 UNL1     -0.2917
     26 O         4.595725   1.567254   6.451053 O.3        1 UNL1     -0.5058
     27 O         1.956918   -1.613151   0.343728 O.3        1 UNL1     -0.3648
     28 O         -1.624724   -1.179872   0.423085 O.3        1 UNL1     -0.3841
     29 O         0.472152   1.142976   2.171894 O.3        1 UNL1     -0.3863
     30 O         -1.591467   -1.615206   3.450181 O.3        1 UNL1     -0.3829
     31 H         0.269026   -2.648951   0.106812 H        1 UNL1     0.0937
     32 H         0.0   0.0   0.0 H        1 UNL1     0.0671
     33 H         -1.448221   0.514924   2.13371 H        1 UNL1     0.0649
     34 H         -0.259124   -0.270757   4.243437 H        1 UNL1     0.0683
     35 H         0.64969   -2.542584   4.078787 H        1 UNL1     0.1085
     36 H         4.02856   0.611939   4.15475 H        1 UNL1     0.0691
     37 H         0.821593   -1.936633   5.515022 H        1 UNL1     0.0691
     38 H         0.929885   1.00793   9.399663 H        1 UNL1     0.0385
     39 H         2.117079   0.53118   10.629226 H        1 UNL1     0.0385
     40 H         0.564601   -1.339792   9.952008 H        1 UNL1     0.0789
     41 H         1.12865   -3.410638   10.795261 H        1 UNL1     0.0623
     42 H         2.851716   -4.960449   11.62671 H        1 UNL1     0.0654
     43 H         5.903645   -2.595759   9.744329 H        1 UNL1     0.0654
     44 H         4.222891   -1.068748   8.878731 H        1 UNL1     0.0623
     45 H         5.361127   -5.55646   10.751924 H        1 UNL1     0.2921
     46 H         4.216765   2.455989   6.540225 H        1 UNL1     0.2922
     47 H         1.912338   -0.931826   -0.341595 H        1 UNL1     0.2126
     48 H         -2.06125   -0.456556   -0.066804 H        1 UNL1     0.2101
     49 H         -0.001881   1.966779   2.367941 H        1 UNL1     0.2100
     50 H         -1.997492   -1.391444   4.313192 H        1 UNL1     0.2102
@<TRIPOS>BOND
     1     1     2    1
     2     1     6    1
     3     2     3    1
     4     3     4    1
     5     3    29    1
     6     3    33    1
     7     4     5    1
     8     5     6    1
     9     5     7    1
    10     5    35    1
    11     7     8    1
    12     8     9   ar
    13     8    13   ar
    14     9    10   ar
    15     9    36    1
    16    10    11   ar
    17    10    26    1
    18    11    12   ar
    19    11    14    1
    20    12    13   ar
    21    12    17    1
    22    13    37    1
    23    14    15    1
    24    14    25    2
    25    15    16    1
    26    15    38    1
    27    15    39    1
    28    16    17    1
    29    16    18    1
    30    16    40    1
    31    18    19   ar
    32    18    23   ar
    33    19    20   ar
    34    19    41    1
    35    20    21   ar
    36    20    42    1
    37    21    22   ar
    38    21    24    1
    39    22    23   ar
    40    22    43    1
    41    23    44    1
    42    24    45    1
    43    26    46    1
    44    27    47    1
    45    28    48    1
    46    29    49    1
    47    30    50    1
    48     1    31    1
    49     1    27    1
    50     2    32    1
    51     2    28    1
    52     4    34    1
    53     4    30    1
