@<TRIPOS>MOLECULE
*****
 50 53 0 0 0
SMALL
GASTEIGER

@<TRIPOS>ATOM
     1 C         -0.332281   -1.328201   1.701845 C.3        1 UNL1     0.1889
     2 C         -0.462562   -0.975345   0.195704 C.3        1 UNL1     0.1342
     3 C         -1.90334   -0.962706   -0.337647 C.3        1 UNL1     0.1174
     4 C         -2.789806   -2.021852   0.322282 C.3        1 UNL1     0.1456
     5 C         -2.638352   -2.047116   1.854205 C.3        1 UNL1     0.2326
     6 O         -1.273512   -2.265295   2.204173 O.3        1 UNL1     -0.3076
     7 O         -3.213243   -0.89998   2.506048 O.3        1 UNL1     -0.4605
     8 C         -3.723344   -1.115381   3.773694 C.ar        1 UNL1     0.1310
     9 C         -4.539779   -2.188364   4.147114 C.ar        1 UNL1     0.0226
     10 C         -4.993144   -2.328692   5.464183 C.ar        1 UNL1     0.1343
     11 C         -4.621152   -1.41148   6.446112 C.ar        1 UNL1     0.1007
     12 C         -3.839913   -0.313398   6.076427 C.ar        1 UNL1     0.1389
     13 C         -3.386364   -0.171088   4.751485 C.ar        1 UNL1     0.0229
     14 C         -5.002246   -1.557249   7.870076 C.2        1 UNL1     0.1740
     15 C         -4.333626   -0.608939   8.821498 C.3        1 UNL1     0.0520
     16 C         -4.264174   0.76301   8.165075 C.3        1 UNL1     0.1322
     17 O         -3.505219   0.70612   6.937141 O.3        1 UNL1     -0.4828
     18 C         -5.623405   1.455378   8.039216 C.ar        1 UNL1     -0.0067
     19 C         -6.002141   2.018122   6.803056 C.ar        1 UNL1     -0.0516
     20 C         -7.217392   2.699602   6.666265 C.ar        1 UNL1     -0.0198
     21 C         -8.057424   2.831249   7.757522 C.ar        1 UNL1     0.1169
     22 C         -7.727468   2.259116   8.979255 C.ar        1 UNL1     -0.0198
     23 C         -6.520758   1.561684   9.111527 C.ar        1 UNL1     -0.0516
     24 O         -9.215097   3.534204   7.596125 O.3        1 UNL1     -0.5068
     25 O         -5.751132   -2.438943   8.282713 O.2        1 UNL1     -0.2917
     26 O         -5.787512   -3.397014   5.762931 O.3        1 UNL1     -0.5058
     27 O         -0.226945   -0.189941   2.542115 O.3        1 UNL1     -0.3648
     28 O         0.267946   -1.953893   -0.566861 O.3        1 UNL1     -0.3841
     29 O         -2.460654   0.350973   -0.261616 O.3        1 UNL1     -0.3863
     30 O         -2.442337   -3.322713   -0.199939 O.3        1 UNL1     -0.3829
     31 H         0.62832   -1.841157   1.82101 H        1 UNL1     0.0937
     32 H         0.0   0.0   0.0 H        1 UNL1     0.0671
     33 H         -1.866244   -1.202317   -1.409529 H        1 UNL1     0.0649
     34 H         -3.839884   -1.843422   0.065573 H        1 UNL1     0.0683
     35 H         -3.193191   -2.942908   2.16013 H        1 UNL1     0.1085
     36 H         -4.817999   -2.965103   3.443274 H        1 UNL1     0.0691
     37 H         -2.780269   0.69335   4.489017 H        1 UNL1     0.0691
     38 H         -3.331331   -0.999039   9.028265 H        1 UNL1     0.0385
     39 H         -4.894064   -0.589855   9.762414 H        1 UNL1     0.0385
     40 H         -3.669458   1.408238   8.825766 H        1 UNL1     0.0789
     41 H         -5.356113   1.936359   5.933796 H        1 UNL1     0.0623
     42 H         -7.492731   3.139419   5.710879 H        1 UNL1     0.0654
     43 H         -8.384896   2.343255   9.836355 H        1 UNL1     0.0654
     44 H         -6.299856   1.118387   10.077723 H        1 UNL1     0.0623
     45 H         -8.98902   4.441744   7.335401 H        1 UNL1     0.2921
     46 H         -5.383835   -3.909516   6.481122 H        1 UNL1     0.2922
     47 H         0.516116   0.363708   2.264279 H        1 UNL1     0.2126
     48 H         1.200844   -1.888143   -0.285595 H        1 UNL1     0.2101
     49 H         -2.021668   0.933259   -0.901949 H        1 UNL1     0.2100
     50 H         -2.675498   -3.337795   -1.151318 H        1 UNL1     0.2102
@<TRIPOS>BOND
     1     1     2    1
     2     1     6    1
     3     2     3    1
     4     3     4    1
     5     3    29    1
     6     3    33    1
     7     4     5    1
     8     5     6    1
     9     5     7    1
    10     5    35    1
    11     7     8    1
    12     8     9   ar
    13     8    13   ar
    14     9    10   ar
    15     9    36    1
    16    10    11   ar
    17    10    26    1
    18    11    12   ar
    19    11    14    1
    20    12    13   ar
    21    12    17    1
    22    13    37    1
    23    14    15    1
    24    14    25    2
    25    15    16    1
    26    15    38    1
    27    15    39    1
    28    16    17    1
    29    16    18    1
    30    16    40    1
    31    18    19   ar
    32    18    23   ar
    33    19    20   ar
    34    19    41    1
    35    20    21   ar
    36    20    42    1
    37    21    22   ar
    38    21    24    1
    39    22    23   ar
    40    22    43    1
    41    23    44    1
    42    24    45    1
    43    26    46    1
    44    27    47    1
    45    28    48    1
    46    29    49    1
    47    30    50    1
    48     1    31    1
    49     1    27    1
    50     2    32    1
    51     2    28    1
    52     4    34    1
    53     4    30    1
