@<TRIPOS>MOLECULE
*****
 50 53 0 0 0
SMALL
GASTEIGER

@<TRIPOS>ATOM
     1 C         -0.389286   -1.354821   1.668448 C.3        1 UNL1     0.1889
     2 C         -0.492329   -0.965693   0.169148 C.3        1 UNL1     0.1342
     3 C         -1.926003   -0.900107   -0.379253 C.3        1 UNL1     0.1174
     4 C         -2.849702   -1.947478   0.247573 C.3        1 UNL1     0.1456
     5 C         -2.716467   -2.010396   1.780105 C.3        1 UNL1     0.2326
     6 O         -1.362459   -2.275219   2.139826 O.3        1 UNL1     -0.3076
     7 O         -3.265857   -0.861682   2.450887 O.3        1 UNL1     -0.4605
     8 C         -3.796271   -1.089876   3.707914 C.ar        1 UNL1     0.1310
     9 C         -4.647281   -2.146729   4.048714 C.ar        1 UNL1     0.0226
     10 C         -5.119396   -2.302617   5.357419 C.ar        1 UNL1     0.1343
     11 C         -4.732462   -1.418178   6.363345 C.ar        1 UNL1     0.1007
     12 C         -3.915955   -0.335308   6.026458 C.ar        1 UNL1     0.1389
     13 C         -3.44351   -0.177272   4.709928 C.ar        1 UNL1     0.0229
     14 C         -5.13371   -1.583923   7.779567 C.2        1 UNL1     0.1740
     15 C         -4.449051   -0.676305   8.758863 C.3        1 UNL1     0.0520
     16 C         -4.332897   0.707064   8.133759 C.3        1 UNL1     0.1322
     17 O         -3.561995   0.655094   6.913071 O.3        1 UNL1     -0.4828
     18 C         -5.670229   1.440976   8.008702 C.ar        1 UNL1     -0.0067
     19 C         -6.017402   2.043666   6.782142 C.ar        1 UNL1     -0.0516
     20 C         -7.210997   2.762824   6.647587 C.ar        1 UNL1     -0.0198
     21 C         -8.060467   2.892488   7.731753 C.ar        1 UNL1     0.1169
     22 C         -7.762138   2.282159   8.94309 C.ar        1 UNL1     -0.0198
     23 C         -6.577477   1.547413   9.072642 C.ar        1 UNL1     -0.0516
     24 O         -9.195594   3.632039   7.573796 O.3        1 UNL1     -0.5068
     25 O         -5.91217   -2.452419   8.164532 O.2        1 UNL1     -0.2917
     26 O         -5.947369   -3.353821   5.623909 O.3        1 UNL1     -0.5058
     27 O         -0.261166   -0.238601   2.534718 O.3        1 UNL1     -0.3648
     28 O         0.218663   -1.947986   -0.606929 O.3        1 UNL1     -0.3841
     29 O         -2.446534   0.427062   -0.280245 O.3        1 UNL1     -0.3863
     30 O         -2.533477   -3.246109   -0.299463 O.3        1 UNL1     -0.3829
     31 H         0.554909   -1.897608   1.786585 H        1 UNL1     0.0937
     32 H         0.0   0.0   0.0 H        1 UNL1     0.0671
     33 H         -1.883549   -1.117312   -1.455701 H        1 UNL1     0.0649
     34 H         -3.891289   -1.733441   -0.016409 H        1 UNL1     0.0683
     35 H         -3.30002   -2.896336   2.060205 H        1 UNL1     0.1085
     36 H         -4.939622   -2.899565   3.324908 H        1 UNL1     0.0691
     37 H         -2.80997   0.674825   4.473174 H        1 UNL1     0.0691
     38 H         -3.460748   -1.099605   8.967672 H        1 UNL1     0.0385
     39 H         -5.019355   -0.661585   9.693911 H        1 UNL1     0.0385
     40 H         -3.727486   1.320277   8.81491 H        1 UNL1     0.0789
     41 H         -5.363188   1.964132   5.918818 H        1 UNL1     0.0623
     42 H         -7.461811   3.233012   5.699943 H        1 UNL1     0.0654
     43 H         -8.427527   2.364686   9.794181 H        1 UNL1     0.0654
     44 H         -6.381307   1.075052   10.030367 H        1 UNL1     0.0623
     45 H         -8.940456   4.540042   7.343253 H        1 UNL1     0.2921
     46 H         -5.567389   -3.892541   6.335813 H        1 UNL1     0.2922
     47 H         0.498831   0.300902   2.275485 H        1 UNL1     0.2126
     48 H         1.153009   -1.903311   -0.326335 H        1 UNL1     0.2101
     49 H         -1.984015   1.010262   -0.902939 H        1 UNL1     0.2100
     50 H         -2.761421   -3.235598   -1.252167 H        1 UNL1     0.2102
@<TRIPOS>BOND
     1     1     2    1
     2     1     6    1
     3     2     3    1
     4     3     4    1
     5     3    29    1
     6     3    33    1
     7     4     5    1
     8     5     6    1
     9     5     7    1
    10     5    35    1
    11     7     8    1
    12     8     9   ar
    13     8    13   ar
    14     9    10   ar
    15     9    36    1
    16    10    11   ar
    17    10    26    1
    18    11    12   ar
    19    11    14    1
    20    12    13   ar
    21    12    17    1
    22    13    37    1
    23    14    15    1
    24    14    25    2
    25    15    16    1
    26    15    38    1
    27    15    39    1
    28    16    17    1
    29    16    18    1
    30    16    40    1
    31    18    19   ar
    32    18    23   ar
    33    19    20   ar
    34    19    41    1
    35    20    21   ar
    36    20    42    1
    37    21    22   ar
    38    21    24    1
    39    22    23   ar
    40    22    43    1
    41    23    44    1
    42    24    45    1
    43    26    46    1
    44    27    47    1
    45    28    48    1
    46    29    49    1
    47    30    50    1
    48     1    31    1
    49     1    27    1
    50     2    32    1
    51     2    28    1
    52     4    34    1
    53     4    30    1
