@<TRIPOS>MOLECULE
*****
 50 53 0 0 0
SMALL
GASTEIGER

@<TRIPOS>ATOM
     1 C         -0.221482   -1.563269   1.509285 C.3        1 UNL1     0.1889
     2 C         -0.811797   -0.511659   0.531745 C.3        1 UNL1     0.1342
     3 C         -1.719053   0.538469   1.190974 C.3        1 UNL1     0.1174
     4 C         -2.535861   -0.029268   2.354425 C.3        1 UNL1     0.1456
     5 C         -1.684227   -0.881422   3.313025 C.3        1 UNL1     0.2326
     6 O         -1.056279   -1.940616   2.594235 O.3        1 UNL1     -0.3076
     7 O         -0.761657   -0.107935   4.101633 O.3        1 UNL1     -0.4605
     8 C         0.074325   -0.827872   4.936111 C.ar        1 UNL1     0.1310
     9 C         0.117581   -2.222912   5.032516 C.ar        1 UNL1     0.0226
     10 C         1.014095   -2.861121   5.897879 C.ar        1 UNL1     0.1343
     11 C         1.906448   -2.119689   6.671071 C.ar        1 UNL1     0.1007
     12 C         1.844594   -0.724811   6.613868 C.ar        1 UNL1     0.1389
     13 C         0.941253   -0.083272   5.745632 C.ar        1 UNL1     0.0229
     14 C         2.931354   -2.744227   7.539215 C.2        1 UNL1     0.1740
     15 C         3.947161   -1.806409   8.122465 C.3        1 UNL1     0.0520
     16 C         3.236324   -0.527743   8.543985 C.3        1 UNL1     0.1322
     17 O         2.600962   0.103321   7.410343 O.3        1 UNL1     -0.4828
     18 C         2.329095   -0.700787   9.764524 C.ar        1 UNL1     -0.0067
     19 C         2.906285   -0.949353   11.026776 C.ar        1 UNL1     -0.0516
     20 C         2.104004   -1.159451   12.15468 C.ar        1 UNL1     -0.0198
     21 C         0.72631   -1.130872   12.032327 C.ar        1 UNL1     0.1169
     22 C         0.128781   -0.855354   10.809263 C.ar        1 UNL1     -0.0198
     23 C         0.931026   -0.626937   9.684859 C.ar        1 UNL1     -0.0516
     24 O         -0.022841   -1.377462   13.145146 O.3        1 UNL1     -0.5068
     25 O         3.015794   -3.955895   7.721472 O.2        1 UNL1     -0.2917
     26 O         1.005103   -4.224653   5.945685 O.3        1 UNL1     -0.5058
     27 O         1.094082   -1.256405   1.942772 O.3        1 UNL1     -0.3648
     28 O         -1.600914   -1.199838   -0.45639 O.3        1 UNL1     -0.3841
     29 O         -0.969349   1.699143   1.555545 O.3        1 UNL1     -0.3863
     30 O         -3.602898   -0.848368   1.828881 O.3        1 UNL1     -0.3829
     31 H         -0.107771   -2.491541   0.938794 H        1 UNL1     0.0937
     32 H         0.0   0.0   0.0 H        1 UNL1     0.0671
     33 H         -2.438974   0.881732   0.434929 H        1 UNL1     0.0649
     34 H         -3.00472   0.786697   2.915472 H        1 UNL1     0.0683
     35 H         -2.421126   -1.343049   3.982173 H        1 UNL1     0.1085
     36 H         -0.51128   -2.856793   4.417008 H        1 UNL1     0.0691
     37 H         0.912045   1.003931   5.720524 H        1 UNL1     0.0691
     38 H         4.695395   -1.605511   7.348312 H        1 UNL1     0.0385
     39 H         4.448392   -2.297939   8.963266 H        1 UNL1     0.0385
     40 H         4.011111   0.185356   8.856579 H        1 UNL1     0.0789
     41 H         3.985078   -0.985897   11.14728 H        1 UNL1     0.0623
     42 H         2.560895   -1.361982   13.120208 H        1 UNL1     0.0654
     43 H         -0.94896   -0.815719   10.705276 H        1 UNL1     0.0654
     44 H         0.430642   -0.404109   8.747412 H        1 UNL1     0.0623
     45 H         0.314745   -2.182659   13.569893 H        1 UNL1     0.2921
     46 H         1.803406   -4.537723   6.399679 H        1 UNL1     0.2922
     47 H         1.064783   -0.701091   2.73437 H        1 UNL1     0.2126
     48 H         -2.412142   -0.671327   -0.584128 H        1 UNL1     0.2101
     49 H         -1.256839   2.017752   2.425966 H        1 UNL1     0.2100
     50 H         -3.341926   -1.786842   1.933162 H        1 UNL1     0.2102
@<TRIPOS>BOND
     1     1     2    1
     2     1     6    1
     3     2     3    1
     4     3     4    1
     5     3    29    1
     6     3    33    1
     7     4     5    1
     8     5     6    1
     9     5     7    1
    10     5    35    1
    11     7     8    1
    12     8     9   ar
    13     8    13   ar
    14     9    10   ar
    15     9    36    1
    16    10    11   ar
    17    10    26    1
    18    11    12   ar
    19    11    14    1
    20    12    13   ar
    21    12    17    1
    22    13    37    1
    23    14    15    1
    24    14    25    2
    25    15    16    1
    26    15    38    1
    27    15    39    1
    28    16    17    1
    29    16    18    1
    30    16    40    1
    31    18    19   ar
    32    18    23   ar
    33    19    20   ar
    34    19    41    1
    35    20    21   ar
    36    20    42    1
    37    21    22   ar
    38    21    24    1
    39    22    23   ar
    40    22    43    1
    41    23    44    1
    42    24    45    1
    43    26    46    1
    44    27    47    1
    45    28    48    1
    46    29    49    1
    47    30    50    1
    48     1    31    1
    49     1    27    1
    50     2    32    1
    51     2    28    1
    52     4    34    1
    53     4    30    1
