@<TRIPOS>MOLECULE
*****
 50 53 0 0 0
SMALL
GASTEIGER

@<TRIPOS>ATOM
     1 C         1.884802   -0.461673   1.002589 C.3        1 UNL1     0.1889
     2 C         0.937265   -0.523673   -0.225528 C.3        1 UNL1     0.1342
     3 C         0.612833   -1.943713   -0.714092 C.3        1 UNL1     0.1174
     4 C         1.789152   -2.909908   -0.553293 C.3        1 UNL1     0.1456
     5 C         2.450682   -2.808825   0.833258 C.3        1 UNL1     0.2326
     6 O         2.881856   -1.470521   1.069696 O.3        1 UNL1     -0.3076
     7 O         1.637241   -3.337418   1.896378 O.3        1 UNL1     -0.4605
     8 C         2.154789   -3.215927   3.17345 C.ar        1 UNL1     0.1310
     9 C         3.362208   -2.590427   3.502374 C.ar        1 UNL1     0.0226
     10 C         3.793576   -2.503212   4.831365 C.ar        1 UNL1     0.1343
     11 C         3.015656   -3.018937   5.867082 C.ar        1 UNL1     0.1007
     12 C         1.827871   -3.682032   5.54731 C.ar        1 UNL1     0.1389
     13 C         1.395642   -3.77192   4.210699 C.ar        1 UNL1     0.0229
     14 C         3.382452   -2.88056   7.295531 C.2        1 UNL1     0.1740
     15 C         2.327672   -3.293458   8.279657 C.3        1 UNL1     0.0520
     16 C         1.654014   -4.556912   7.762137 C.3        1 UNL1     0.1322
     17 O         1.039391   -4.320427   6.476298 O.3        1 UNL1     -0.4828
     18 C         2.546631   -5.798942   7.81976 C.ar        1 UNL1     -0.0067
     19 C         3.292167   -6.169382   6.681708 C.ar        1 UNL1     -0.0516
     20 C         4.081438   -7.32567   6.685144 C.ar        1 UNL1     -0.0198
     21 C         4.127715   -8.122082   7.815371 C.ar        1 UNL1     0.1169
     22 C         3.431084   -7.765673   8.962767 C.ar        1 UNL1     -0.0198
     23 C         2.656311   -6.599579   8.965773 C.ar        1 UNL1     -0.0516
     24 O         4.877314   -9.260651   7.768867 O.3        1 UNL1     -0.5068
     25 O         4.44102   -2.388327   7.67714 O.2        1 UNL1     -0.2917
     26 O         4.981281   -1.881394   5.084908 O.3        1 UNL1     -0.5058
     27 O         1.201169   -0.317986   2.237411 O.3        1 UNL1     -0.3648
     28 O         1.562084   0.173377   -1.319341 O.3        1 UNL1     -0.3841
     29 O         -0.587243   -2.426957   -0.10711 O.3        1 UNL1     -0.3863
     30 O         2.780764   -2.621171   -1.562761 O.3        1 UNL1     -0.3829
     31 H         2.462991   0.463688   0.905203 H        1 UNL1     0.0937
     32 H         -0.0   0.0   0.0 H        1 UNL1     0.0671
     33 H         0.393326   -1.886426   -1.789385 H        1 UNL1     0.0649
     34 H         1.452955   -3.939362   -0.719416 H        1 UNL1     0.0683
     35 H         3.354795   -3.423514   0.740432 H        1 UNL1     0.1085
     36 H         3.984853   -2.120709   2.74885 H        1 UNL1     0.0691
     37 H         0.467732   -4.294306   3.988015 H        1 UNL1     0.0691
     38 H         1.611085   -2.469328   8.362351 H        1 UNL1     0.0385
     39 H         2.791129   -3.443481   9.260717 H        1 UNL1     0.0385
     40 H         0.811849   -4.772909   8.433421 H        1 UNL1     0.0789
     41 H         3.265491   -5.565948   5.779041 H        1 UNL1     0.0623
     42 H         4.642356   -7.607048   5.797333 H        1 UNL1     0.0654
     43 H         3.472185   -8.374101   9.858332 H        1 UNL1     0.0654
     44 H         2.133602   -6.345914   9.882983 H        1 UNL1     0.0623
     45 H         4.702958   -9.708385   6.925154 H        1 UNL1     0.2921
     46 H         5.474044   -1.774719   4.255922 H        1 UNL1     0.2922
     47 H         0.585079   0.42662   2.19436 H        1 UNL1     0.2126
     48 H         1.51679   1.125445   -1.106624 H        1 UNL1     0.2101
     49 H         -0.481671   -3.360745   0.135147 H        1 UNL1     0.2100
     50 H         3.433115   -3.352027   -1.562345 H        1 UNL1     0.2102
@<TRIPOS>BOND
     1     1     2    1
     2     1     6    1
     3     2     3    1
     4     3     4    1
     5     3    29    1
     6     3    33    1
     7     4     5    1
     8     5     6    1
     9     5     7    1
    10     5    35    1
    11     7     8    1
    12     8     9   ar
    13     8    13   ar
    14     9    10   ar
    15     9    36    1
    16    10    11   ar
    17    10    26    1
    18    11    12   ar
    19    11    14    1
    20    12    13   ar
    21    12    17    1
    22    13    37    1
    23    14    15    1
    24    14    25    2
    25    15    16    1
    26    15    38    1
    27    15    39    1
    28    16    17    1
    29    16    18    1
    30    16    40    1
    31    18    19   ar
    32    18    23   ar
    33    19    20   ar
    34    19    41    1
    35    20    21   ar
    36    20    42    1
    37    21    22   ar
    38    21    24    1
    39    22    23   ar
    40    22    43    1
    41    23    44    1
    42    24    45    1
    43    26    46    1
    44    27    47    1
    45    28    48    1
    46    29    49    1
    47    30    50    1
    48     1    31    1
    49     1    27    1
    50     2    32    1
    51     2    28    1
    52     4    34    1
    53     4    30    1
