@<TRIPOS>MOLECULE
*****
 50 53 0 0 0
SMALL
GASTEIGER

@<TRIPOS>ATOM
     1 C         1.826064   1.136272   -0.381028 C.3        1 UNL1     0.1889
     2 C         0.942468   -0.129367   -0.546425 C.3        1 UNL1     0.1342
     3 C         1.607366   -1.439008   -0.095629 C.3        1 UNL1     0.1174
     4 C         3.113147   -1.465086   -0.369601 C.3        1 UNL1     0.1456
     5 C         3.815372   -0.166959   0.068704 C.3        1 UNL1     0.2326
     6 O         3.219434   0.952117   -0.583519 O.3        1 UNL1     -0.3076
     7 O         3.895231   -0.012705   1.497392 O.3        1 UNL1     -0.4605
     8 C         3.653719   -1.151558   2.244529 C.ar        1 UNL1     0.1310
     9 C         3.957816   -1.310534   3.600829 C.ar        1 UNL1     0.0226
     10 C         3.657635   -2.500053   4.275246 C.ar        1 UNL1     0.1343
     11 C         3.023813   -3.55174   3.614892 C.ar        1 UNL1     0.1007
     12 C         2.752315   -3.420209   2.250425 C.ar        1 UNL1     0.1389
     13 C         3.056642   -2.225048   1.571893 C.ar        1 UNL1     0.0229
     14 C         2.608097   -4.798193   4.29877 C.2        1 UNL1     0.1740
     15 C         1.744333   -5.72368   3.493206 C.3        1 UNL1     0.0520
     16 C         2.269353   -5.751139   2.064375 C.3        1 UNL1     0.1322
     17 O         2.229664   -4.431404   1.478034 O.3        1 UNL1     -0.4828
     18 C         3.611457   -6.471635   1.914818 C.ar        1 UNL1     -0.0067
     19 C         4.216434   -6.552064   0.643697 C.ar        1 UNL1     -0.0516
     20 C         5.419872   -7.244314   0.463443 C.ar        1 UNL1     -0.0198
     21 C         6.023117   -7.865229   1.542511 C.ar        1 UNL1     0.1169
     22 C         5.469003   -7.775411   2.812837 C.ar        1 UNL1     -0.0198
     23 C         4.275171   -7.067613   2.996801 C.ar        1 UNL1     -0.0516
     24 O         7.174578   -8.562157   1.321534 O.3        1 UNL1     -0.5068
     25 O         2.87116   -5.045297   5.472747 O.2        1 UNL1     -0.2917
     26 O         3.981214   -2.591579   5.597556 O.3        1 UNL1     -0.5058
     27 O         1.561021   1.859014   0.810687 O.3        1 UNL1     -0.3648
     28 O         0.610476   -0.274967   -1.939727 O.3        1 UNL1     -0.3841
     29 O         1.287711   -1.727065   1.26708 O.3        1 UNL1     -0.3863
     30 O         3.334093   -1.657543   -1.783756 O.3        1 UNL1     -0.3829
     31 H         1.53952   1.824878   -1.183395 H        1 UNL1     0.0937
     32 H         0.0   0.0   0.0 H        1 UNL1     0.0671
     33 H         1.164012   -2.258221   -0.678764 H        1 UNL1     0.0649
     34 H         3.572272   -2.31624   0.145318 H        1 UNL1     0.0683
     35 H         4.831226   -0.266893   -0.333706 H        1 UNL1     0.1085
     36 H         4.399669   -0.509881   4.183788 H        1 UNL1     0.0691
     37 H         2.836197   -2.14825   0.50935 H        1 UNL1     0.0691
     38 H         0.720249   -5.337154   3.530323 H        1 UNL1     0.0385
     39 H         1.752302   -6.716237   3.956396 H        1 UNL1     0.0385
     40 H         1.556711   -6.337683   1.468869 H        1 UNL1     0.0789
     41 H         3.758064   -6.080943   -0.220937 H        1 UNL1     0.0623
     42 H         5.870311   -7.309271   -0.523925 H        1 UNL1     0.0654
     43 H         5.94091   -8.245171   3.667554 H        1 UNL1     0.0654
     44 H         3.875991   -7.008913   4.004797 H        1 UNL1     0.0623
     45 H         7.917586   -8.047026   1.675504 H        1 UNL1     0.2921
     46 H         4.930433   -2.425394   5.710592 H        1 UNL1     0.2922
     47 H         1.932146   2.750411   0.751212 H        1 UNL1     0.2126
     48 H         1.425806   -0.085527   -2.442799 H        1 UNL1     0.2101
     49 H         0.812465   -2.571331   1.323208 H        1 UNL1     0.2100
     50 H         3.051773   -2.567455   -2.011942 H        1 UNL1     0.2102
@<TRIPOS>BOND
     1     1     2    1
     2     1     6    1
     3     2     3    1
     4     3     4    1
     5     3    29    1
     6     3    33    1
     7     4     5    1
     8     5     6    1
     9     5     7    1
    10     5    35    1
    11     7     8    1
    12     8     9   ar
    13     8    13   ar
    14     9    10   ar
    15     9    36    1
    16    10    11   ar
    17    10    26    1
    18    11    12   ar
    19    11    14    1
    20    12    13   ar
    21    12    17    1
    22    13    37    1
    23    14    15    1
    24    14    25    2
    25    15    16    1
    26    15    38    1
    27    15    39    1
    28    16    17    1
    29    16    18    1
    30    16    40    1
    31    18    19   ar
    32    18    23   ar
    33    19    20   ar
    34    19    41    1
    35    20    21   ar
    36    20    42    1
    37    21    22   ar
    38    21    24    1
    39    22    23   ar
    40    22    43    1
    41    23    44    1
    42    24    45    1
    43    26    46    1
    44    27    47    1
    45    28    48    1
    46    29    49    1
    47    30    50    1
    48     1    31    1
    49     1    27    1
    50     2    32    1
    51     2    28    1
    52     4    34    1
    53     4    30    1
