@<TRIPOS>MOLECULE
*****
 50 53 0 0 0
SMALL
GASTEIGER

@<TRIPOS>ATOM
     1 C         -1.89448   -0.243901   -1.05937 C.3        1 UNL1     0.1889
     2 C         -0.347124   -0.121572   -1.03358 C.3        1 UNL1     0.1342
     3 C         0.220195   1.020609   -1.89034 C.3        1 UNL1     0.1174
     4 C         -0.586727   1.260798   -3.168739 C.3        1 UNL1     0.1456
     5 C         -2.1039   1.301683   -2.910135 C.3        1 UNL1     0.2326
     6 O         -2.523754   0.089495   -2.287887 O.3        1 UNL1     -0.3076
     7 O         -2.533264   2.479142   -2.202634 O.3        1 UNL1     -0.4605
     8 C         -1.707738   2.905316   -1.177739 C.ar        1 UNL1     0.1310
     9 C         -1.863415   2.584027   0.174976 C.ar        1 UNL1     0.0226
     10 C         -0.96195   3.052071   1.138407 C.ar        1 UNL1     0.1343
     11 C         0.131704   3.833917   0.768978 C.ar        1 UNL1     0.1007
     12 C         0.274639   4.195349   -0.573304 C.ar        1 UNL1     0.1389
     13 C         -0.633403   3.726793   -1.54147 C.ar        1 UNL1     0.0229
     14 C         1.161262   4.285529   1.733452 C.2        1 UNL1     0.1740
     15 C         2.378937   4.92357   1.132021 C.3        1 UNL1     0.0520
     16 C         1.936138   5.817717   -0.01793 C.3        1 UNL1     0.1322
     17 O         1.251628   5.048573   -1.031307 O.3        1 UNL1     -0.4828
     18 C         1.19279   7.077689   0.432216 C.ar        1 UNL1     -0.0067
     19 C         1.645301   7.780172   1.567982 C.ar        1 UNL1     -0.0516
     20 C         0.9608   8.908838   2.034388 C.ar        1 UNL1     -0.0198
     21 C         -0.179128   9.339775   1.379648 C.ar        1 UNL1     0.1169
     22 C         -0.630343   8.688758   0.23885 C.ar        1 UNL1     -0.0198
     23 C         0.064494   7.571027   -0.238575 C.ar        1 UNL1     -0.0516
     24 O         -0.840824   10.420092   1.885094 O.3        1 UNL1     -0.5068
     25 O         1.085682   4.090704   2.943748 O.2        1 UNL1     -0.2917
     26 O         -1.170771   2.703581   2.440917 O.3        1 UNL1     -0.5058
     27 O         -2.529769   0.385258   0.042154 O.3        1 UNL1     -0.3648
     28 O         0.215871   -1.350004   -1.530267 O.3        1 UNL1     -0.3841
     29 O         0.385958   2.205969   -1.109586 O.3        1 UNL1     -0.3863
     30 O         -0.30507   0.204319   -4.112249 O.3        1 UNL1     -0.3829
     31 H         -2.126375   -1.30709   -0.93315 H        1 UNL1     0.0937
     32 H         0.0   0.0   0.0 H        1 UNL1     0.0671
     33 H         1.233687   0.733395   -2.203487 H        1 UNL1     0.0649
     34 H         -0.274247   2.200643   -3.637193 H        1 UNL1     0.0683
     35 H         -2.543377   1.313013   -3.915426 H        1 UNL1     0.1085
     36 H         -2.660894   1.934376   0.518636 H        1 UNL1     0.0691
     37 H         -0.50068   4.023409   -2.579688 H        1 UNL1     0.0691
     38 H         3.033328   4.119846   0.778006 H        1 UNL1     0.0385
     39 H         2.912415   5.481851   1.908875 H        1 UNL1     0.0385
     40 H         2.846072   6.179375   -0.515668 H        1 UNL1     0.0789
     41 H         2.53227   7.456624   2.104873 H        1 UNL1     0.0623
     42 H         1.312912   9.43494   2.918269 H        1 UNL1     0.0654
     43 H         -1.51331   9.026737   -0.290348 H        1 UNL1     0.0654
     44 H         -0.310185   7.093113   -1.138608 H        1 UNL1     0.0623
     45 H         -0.203804   10.971945   2.367151 H        1 UNL1     0.2921
     46 H         -0.546483   2.004903   2.692959 H        1 UNL1     0.2922
     47 H         -1.868319   0.719831   0.663768 H        1 UNL1     0.2126
     48 H         0.998444   -1.104744   -2.060512 H        1 UNL1     0.2101
     49 H         0.579497   1.969982   -0.188366 H        1 UNL1     0.2100
     50 H         -0.398521   -0.651028   -3.64389 H        1 UNL1     0.2102
@<TRIPOS>BOND
     1     1     2    1
     2     1     6    1
     3     2     3    1
     4     3     4    1
     5     3    29    1
     6     3    33    1
     7     4     5    1
     8     5     6    1
     9     5     7    1
    10     5    35    1
    11     7     8    1
    12     8     9   ar
    13     8    13   ar
    14     9    10   ar
    15     9    36    1
    16    10    11   ar
    17    10    26    1
    18    11    12   ar
    19    11    14    1
    20    12    13   ar
    21    12    17    1
    22    13    37    1
    23    14    15    1
    24    14    25    2
    25    15    16    1
    26    15    38    1
    27    15    39    1
    28    16    17    1
    29    16    18    1
    30    16    40    1
    31    18    19   ar
    32    18    23   ar
    33    19    20   ar
    34    19    41    1
    35    20    21   ar
    36    20    42    1
    37    21    22   ar
    38    21    24    1
    39    22    23   ar
    40    22    43    1
    41    23    44    1
    42    24    45    1
    43    26    46    1
    44    27    47    1
    45    28    48    1
    46    29    49    1
    47    30    50    1
    48     1    31    1
    49     1    27    1
    50     2    32    1
    51     2    28    1
    52     4    34    1
    53     4    30    1
