@<TRIPOS>MOLECULE
*****
 50 53 0 0 0
SMALL
GASTEIGER

@<TRIPOS>ATOM
     1 C         -0.332051   -1.329351   1.700992 C.3        1 UNL1     0.1889
     2 C         -0.460523   -0.976512   0.194692 C.3        1 UNL1     0.1342
     3 C         -1.900379   -0.967287   -0.341213 C.3        1 UNL1     0.1174
     4 C         -2.785422   -2.028729   0.316935 C.3        1 UNL1     0.1456
     5 C         -2.636624   -2.053931   1.849119 C.3        1 UNL1     0.2326
     6 O         -1.271878   -2.268843   2.201465 O.3        1 UNL1     -0.3076
     7 O         -3.215473   -0.908334   2.500166 O.3        1 UNL1     -0.4605
     8 C         -3.72687   -1.125128   3.767052 C.ar        1 UNL1     0.1310
     9 C         -4.541218   -2.200145   4.139175 C.ar        1 UNL1     0.0226
     10 C         -4.996133   -2.341735   5.455575 C.ar        1 UNL1     0.1343
     11 C         -4.627796   -1.423732   6.438142 C.ar        1 UNL1     0.1007
     12 C         -3.84871   -0.323702   6.069706 C.ar        1 UNL1     0.1389
     13 C         -3.393605   -0.180129   4.745434 C.ar        1 UNL1     0.0229
     14 C         -5.010581   -1.570598   7.861539 C.2        1 UNL1     0.1740
     15 C         -4.345648   -0.62077   8.81403 C.3        1 UNL1     0.0520
     16 C         -4.278602   0.751421   8.157864 C.3        1 UNL1     0.1322
     17 O         -3.517745   0.696529   6.931017 O.3        1 UNL1     -0.4828
     18 C         -5.639338   1.440483   8.030129 C.ar        1 UNL1     -0.0067
     19 C         -6.017669   2.002445   6.793489 C.ar        1 UNL1     -0.0516
     20 C         -7.234383   2.680971   6.655027 C.ar        1 UNL1     -0.0198
     21 C         -8.076303   2.810439   7.745089 C.ar        1 UNL1     0.1169
     22 C         -7.746708   2.23897   8.967231 C.ar        1 UNL1     -0.0198
     23 C         -6.53849   1.544472   9.101159 C.ar        1 UNL1     -0.0516
     24 O         -9.235455   3.510583   7.582106 O.3        1 UNL1     -0.5068
     25 O         -5.757904   -2.454167   8.272999 O.2        1 UNL1     -0.2917
     26 O         -5.788319   -3.412029   5.753058 O.3        1 UNL1     -0.5058
     27 O         -0.230989   -0.191005   2.541672 O.3        1 UNL1     -0.3648
     28 O         0.273727   -1.953119   -0.566768 O.3        1 UNL1     -0.3841
     29 O         -2.461037   0.34501   -0.265912 O.3        1 UNL1     -0.3863
     30 O         -2.433849   -3.328632   -0.204924 O.3        1 UNL1     -0.3829
     31 H         0.629588   -1.839981   1.821761 H        1 UNL1     0.0937
     32 H         0.0   0.0   0.0 H        1 UNL1     0.0671
     33 H         -1.860797   -1.206592   -1.413074 H        1 UNL1     0.0649
     34 H         -3.835476   -1.852815   0.058398 H        1 UNL1     0.0683
     35 H         -3.189814   -2.951137   2.153884 H        1 UNL1     0.1085
     36 H         -4.816527   -2.977479   3.434848 H        1 UNL1     0.0691
     37 H         -2.789245   0.685816   4.483937 H        1 UNL1     0.0691
     38 H         -3.342701   -1.008445   9.022195 H        1 UNL1     0.0385
     39 H         -4.907484   -0.603165   9.754142 H        1 UNL1     0.0385
     40 H         -3.686415   1.398023   8.819484 H        1 UNL1     0.0789
     41 H         -5.370193   1.922362   5.92515 H        1 UNL1     0.0623
     42 H         -7.50942   3.120226   5.699296 H        1 UNL1     0.0654
     43 H         -8.405572   2.321403   9.823393 H        1 UNL1     0.0654
     44 H         -6.317895   1.101602   10.067622 H        1 UNL1     0.0623
     45 H         -9.01124   4.418513   7.321131 H        1 UNL1     0.2921
     46 H         -5.384251   -3.923821   6.471535 H        1 UNL1     0.2922
     47 H         0.511314   0.364426   2.265369 H        1 UNL1     0.2126
     48 H         1.205841   -1.885634   -0.283323 H        1 UNL1     0.2101
     49 H         -2.02234   0.928496   -0.905352 H        1 UNL1     0.2100
     50 H         -2.665285   -3.344093   -1.156718 H        1 UNL1     0.2102
@<TRIPOS>BOND
     1     1     2    1
     2     1     6    1
     3     2     3    1
     4     3     4    1
     5     3    29    1
     6     3    33    1
     7     4     5    1
     8     5     6    1
     9     5     7    1
    10     5    35    1
    11     7     8    1
    12     8     9   ar
    13     8    13   ar
    14     9    10   ar
    15     9    36    1
    16    10    11   ar
    17    10    26    1
    18    11    12   ar
    19    11    14    1
    20    12    13   ar
    21    12    17    1
    22    13    37    1
    23    14    15    1
    24    14    25    2
    25    15    16    1
    26    15    38    1
    27    15    39    1
    28    16    17    1
    29    16    18    1
    30    16    40    1
    31    18    19   ar
    32    18    23   ar
    33    19    20   ar
    34    19    41    1
    35    20    21   ar
    36    20    42    1
    37    21    22   ar
    38    21    24    1
    39    22    23   ar
    40    22    43    1
    41    23    44    1
    42    24    45    1
    43    26    46    1
    44    27    47    1
    45    28    48    1
    46    29    49    1
    47    30    50    1
    48     1    31    1
    49     1    27    1
    50     2    32    1
    51     2    28    1
    52     4    34    1
    53     4    30    1
