@<TRIPOS>MOLECULE
*****
 50 53 0 0 0
SMALL
GASTEIGER

@<TRIPOS>ATOM
     1 C         -0.491697   -1.41612   1.588598 C.3        1 UNL1     0.1889
     2 C         -0.541868   -0.94761   0.109435 C.3        1 UNL1     0.1342
     3 C         -1.957917   -0.784211   -0.463776 C.3        1 UNL1     0.1174
     4 C         -2.944858   -1.815083   0.08973 C.3        1 UNL1     0.1456
     5 C         -2.849621   -1.96134   1.619404 C.3        1 UNL1     0.2326
     6 O         -1.518414   -2.310097   1.992397 O.3        1 UNL1     -0.3076
     7 O         -3.358274   -0.822151   2.336928 O.3        1 UNL1     -0.4605
     8 C         -3.937614   -1.088202   3.564572 C.ar        1 UNL1     0.1310
     9 C         -5.066821   -1.887814   3.771487 C.ar        1 UNL1     0.0226
     10 C         -5.56913   -2.111585   5.058932 C.ar        1 UNL1     0.1343
     11 C         -4.939646   -1.559958   6.173965 C.ar        1 UNL1     0.1007
     12 C         -3.835611   -0.726325   5.976622 C.ar        1 UNL1     0.1389
     13 C         -3.332314   -0.499336   4.681786 C.ar        1 UNL1     0.0229
     14 C         -5.377695   -1.831712   7.562639 C.2        1 UNL1     0.1740
     15 C         -4.457055   -1.34177   8.641494 C.3        1 UNL1     0.0520
     16 C         -3.930477   0.029078   8.239688 C.3        1 UNL1     0.1322
     17 O         -3.205468   -0.045518   6.992343 O.3        1 UNL1     -0.4828
     18 C         -4.986997   1.135207   8.294156 C.ar        1 UNL1     -0.0067
     19 C         -4.591779   2.478979   8.132004 C.ar        1 UNL1     -0.0516
     20 C         -5.525267   3.518304   8.223467 C.ar        1 UNL1     -0.0198
     21 C         -6.852683   3.228103   8.483425 C.ar        1 UNL1     0.1169
     22 C         -7.278219   1.912603   8.614637 C.ar        1 UNL1     -0.0198
     23 C         -6.348132   0.871955   8.504884 C.ar        1 UNL1     -0.0516
     24 O         -7.726355   4.268655   8.603216 O.3        1 UNL1     -0.5068
     25 O         -6.381574   -2.482806   7.839749 O.2        1 UNL1     -0.2917
     26 O         -6.67437   -2.90039   5.192407 O.3        1 UNL1     -0.5058
     27 O         -0.329795   -0.352447   2.513354 O.3        1 UNL1     -0.3648
     28 O         0.138545   -1.923443   -0.701426 O.3        1 UNL1     -0.3841
     29 O         -2.416199   0.560283   -0.307425 O.3        1 UNL1     -0.3863
     30 O         -2.679052   -3.098576   -0.516638 O.3        1 UNL1     -0.3829
     31 H         0.422406   -2.009888   1.697836 H        1 UNL1     0.0937
     32 H         0.0   0.0   0.0 H        1 UNL1     0.0671
     33 H         -1.901523   -0.948917   -1.548862 H        1 UNL1     0.0649
     34 H         -3.968698   -1.537144   -0.183954 H        1 UNL1     0.0683
     35 H         -3.48127   -2.830483   1.841864 H        1 UNL1     0.1085
     36 H         -5.567835   -2.390195   2.951293 H        1 UNL1     0.0691
     37 H         -2.472224   0.154598   4.554858 H        1 UNL1     0.0691
     38 H         -3.641167   -2.06642   8.734962 H        1 UNL1     0.0385
     39 H         -5.000622   -1.314205   9.592048 H        1 UNL1     0.0385
     40 H         -3.17223   0.314699   8.981309 H        1 UNL1     0.0789
     41 H         -3.554211   2.733528   7.936278 H        1 UNL1     0.0623
     42 H         -5.206066   4.551201   8.108377 H        1 UNL1     0.0654
     43 H         -8.317921   1.673237   8.803407 H        1 UNL1     0.0654
     44 H         -6.717398   -0.144409   8.602301 H        1 UNL1     0.0623
     45 H         -7.219719   5.073566   8.798548 H        1 UNL1     0.2921
     46 H         -6.542252   -3.52087   5.926547 H        1 UNL1     0.2922
     47 H         -1.192505   0.001199   2.771282 H        1 UNL1     0.2126
     48 H         -0.402217   -2.044995   -1.5055 H        1 UNL1     0.2101
     49 H         -2.9847   0.626125   0.476325 H        1 UNL1     0.2100
     50 H         -2.190874   -3.644234   0.134247 H        1 UNL1     0.2102
@<TRIPOS>BOND
     1     1     2    1
     2     1     6    1
     3     2     3    1
     4     3     4    1
     5     3    29    1
     6     3    33    1
     7     4     5    1
     8     5     6    1
     9     5     7    1
    10     5    35    1
    11     7     8    1
    12     8     9   ar
    13     8    13   ar
    14     9    10   ar
    15     9    36    1
    16    10    11   ar
    17    10    26    1
    18    11    12   ar
    19    11    14    1
    20    12    13   ar
    21    12    17    1
    22    13    37    1
    23    14    15    1
    24    14    25    2
    25    15    16    1
    26    15    38    1
    27    15    39    1
    28    16    17    1
    29    16    18    1
    30    16    40    1
    31    18    19   ar
    32    18    23   ar
    33    19    20   ar
    34    19    41    1
    35    20    21   ar
    36    20    42    1
    37    21    22   ar
    38    21    24    1
    39    22    23   ar
    40    22    43    1
    41    23    44    1
    42    24    45    1
    43    26    46    1
    44    27    47    1
    45    28    48    1
    46    29    49    1
    47    30    50    1
    48     1    31    1
    49     1    27    1
    50     2    32    1
    51     2    28    1
    52     4    34    1
    53     4    30    1
