@<TRIPOS>MOLECULE
*****
 50 53 0 0 0
SMALL
GASTEIGER

@<TRIPOS>ATOM
     1 C         0.828423   1.919156   -0.633529 C.3        1 UNL1     0.1889
     2 C         0.847935   0.647221   0.256268 C.3        1 UNL1     0.1342
     3 C         0.829908   0.921726   1.76782 C.3        1 UNL1     0.1174
     4 C         1.60343   2.185916   2.150708 C.3        1 UNL1     0.1456
     5 C         1.263685   3.383027   1.244141 C.3        1 UNL1     0.2326
     6 O         1.51797   3.04853   -0.118327 O.3        1 UNL1     -0.3076
     7 O         -0.058464   3.908815   1.46045 O.3        1 UNL1     -0.4605
     8 C         -0.768986   4.249246   0.323439 C.ar        1 UNL1     0.1310
     9 C         -0.230124   4.375016   -0.961516 C.ar        1 UNL1     0.0226
     10 C         -1.037578   4.708387   -2.055492 C.ar        1 UNL1     0.1343
     11 C         -2.409065   4.900927   -1.894894 C.ar        1 UNL1     0.1007
     12 C         -2.951757   4.818376   -0.609805 C.ar        1 UNL1     0.1389
     13 C         -2.139202   4.485759   0.490445 C.ar        1 UNL1     0.0229
     14 C         -3.322428   5.172263   -3.029045 C.2        1 UNL1     0.1740
     15 C         -4.787443   5.129879   -2.707359 C.3        1 UNL1     0.0520
     16 C         -5.002489   5.790046   -1.352407 C.3        1 UNL1     0.1322
     17 O         -4.267969   5.094724   -0.320866 O.3        1 UNL1     -0.4828
     18 C         -4.795453   7.306513   -1.366055 C.ar        1 UNL1     -0.0067
     19 C         -3.486988   7.826163   -1.444132 C.ar        1 UNL1     -0.0516
     20 C         -3.259378   9.207127   -1.411047 C.ar        1 UNL1     -0.0198
     21 C         -4.328856   10.07667   -1.29298 C.ar        1 UNL1     0.1169
     22 C         -5.63126   9.59653   -1.247736 C.ar        1 UNL1     -0.0198
     23 C         -5.86041   8.216357   -1.299391 C.ar        1 UNL1     -0.0516
     24 O         -4.065803   11.413341   -1.225781 O.3        1 UNL1     -0.5068
     25 O         -2.936072   5.343575   -4.182244 O.2        1 UNL1     -0.2917
     26 O         -0.449994   4.816577   -3.282123 O.3        1 UNL1     -0.5058
     27 O         -0.466748   2.263723   -1.098926 O.3        1 UNL1     -0.3648
     28 O         2.04975   -0.091726   -0.030618 O.3        1 UNL1     -0.3841
     29 O         -0.508856   0.919368   2.267658 O.3        1 UNL1     -0.3863
     30 O         3.020051   1.920837   2.057932 O.3        1 UNL1     -0.3829
     31 H         1.385369   1.672531   -1.544059 H        1 UNL1     0.0937
     32 H         0.0   0.0   0.0 H        1 UNL1     0.0671
     33 H         1.329389   0.079965   2.267496 H        1 UNL1     0.0649
     34 H         1.394498   2.450882   3.193081 H        1 UNL1     0.0683
     35 H         1.998855   4.146582   1.527668 H        1 UNL1     0.1085
     36 H         0.818387   4.183223   -1.16142 H        1 UNL1     0.0691
     37 H         -2.585811   4.428849   1.480796 H        1 UNL1     0.0691
     38 H         -5.09173   4.077967   -2.686922 H        1 UNL1     0.0385
     39 H         -5.34487   5.631748   -3.505595 H        1 UNL1     0.0385
     40 H         -6.057587   5.643207   -1.084593 H        1 UNL1     0.0789
     41 H         -2.630026   7.16418   -1.528078 H        1 UNL1     0.0623
     42 H         -2.244929   9.595076   -1.460044 H        1 UNL1     0.0654
     43 H         -6.477068   10.269243   -1.17042 H        1 UNL1     0.0654
     44 H         -6.891328   7.876765   -1.272365 H        1 UNL1     0.0623
     45 H         -4.240532   11.715125   -0.319628 H        1 UNL1     0.2921
     46 H         -1.133895   4.945339   -3.958223 H        1 UNL1     0.2922
     47 H         -0.865473   1.515122   -1.564195 H        1 UNL1     0.2126
     48 H         2.764345   0.565803   -0.134264 H        1 UNL1     0.2101
     49 H         -0.524224   0.558234   3.168292 H        1 UNL1     0.2100
     50 H         3.49359   2.651949   2.506205 H        1 UNL1     0.2102
@<TRIPOS>BOND
     1     1     2    1
     2     1     6    1
     3     2     3    1
     4     3     4    1
     5     3    29    1
     6     3    33    1
     7     4     5    1
     8     5     6    1
     9     5     7    1
    10     5    35    1
    11     7     8    1
    12     8     9   ar
    13     8    13   ar
    14     9    10   ar
    15     9    36    1
    16    10    11   ar
    17    10    26    1
    18    11    12   ar
    19    11    14    1
    20    12    13   ar
    21    12    17    1
    22    13    37    1
    23    14    15    1
    24    14    25    2
    25    15    16    1
    26    15    38    1
    27    15    39    1
    28    16    17    1
    29    16    18    1
    30    16    40    1
    31    18    19   ar
    32    18    23   ar
    33    19    20   ar
    34    19    41    1
    35    20    21   ar
    36    20    42    1
    37    21    22   ar
    38    21    24    1
    39    22    23   ar
    40    22    43    1
    41    23    44    1
    42    24    45    1
    43    26    46    1
    44    27    47    1
    45    28    48    1
    46    29    49    1
    47    30    50    1
    48     1    31    1
    49     1    27    1
    50     2    32    1
    51     2    28    1
    52     4    34    1
    53     4    30    1
