@<TRIPOS>MOLECULE
*****
 50 53 0 0 0
SMALL
GASTEIGER

@<TRIPOS>ATOM
     1 C         -0.81142   1.863018   -0.800978 C.3        1 UNL1     0.1889
     2 C         -0.076058   1.052498   0.30004 C.3        1 UNL1     0.1342
     3 C         -0.720418   1.13129   1.692541 C.3        1 UNL1     0.1174
     4 C         -1.347312   2.497861   1.979951 C.3        1 UNL1     0.1456
     5 C         -2.206201   3.011077   0.809787 C.3        1 UNL1     0.2326
     6 O         -1.420868   3.074021   -0.378556 O.3        1 UNL1     -0.3076
     7 O         -3.435162   2.28208   0.637919 O.3        1 UNL1     -0.4605
     8 C         -4.050157   2.412552   -0.594268 C.ar        1 UNL1     0.1310
     9 C         -5.359435   2.859123   -0.803234 C.ar        1 UNL1     0.0226
     10 C         -5.887671   2.973461   -2.094666 C.ar        1 UNL1     0.1343
     11 C         -5.11069   2.666354   -3.210832 C.ar        1 UNL1     0.1007
     12 C         -3.815542   2.180304   -3.01302 C.ar        1 UNL1     0.1389
     13 C         -3.28553   2.062912   -1.714275 C.ar        1 UNL1     0.0229
     14 C         -5.58993   2.848692   -4.600521 C.2        1 UNL1     0.1740
     15 C         -4.552573   2.683339   -5.672014 C.3        1 UNL1     0.0520
     16 C         -3.657597   1.509494   -5.299101 C.3        1 UNL1     0.1322
     17 O         -3.001916   1.7463   -4.033765 O.3        1 UNL1     -0.4828
     18 C         -4.348381   0.148208   -5.410648 C.ar        1 UNL1     -0.0067
     19 C         -4.851069   -0.470674   -4.247676 C.ar        1 UNL1     -0.0516
     20 C         -5.445938   -1.736576   -4.307543 C.ar        1 UNL1     -0.0198
     21 C         -5.537316   -2.395648   -5.520433 C.ar        1 UNL1     0.1169
     22 C         -5.081651   -1.797774   -6.688232 C.ar        1 UNL1     -0.0198
     23 C         -4.503403   -0.524013   -6.631501 C.ar        1 UNL1     -0.0516
     24 O         -6.088715   -3.643117   -5.533906 O.3        1 UNL1     -0.5068
     25 O         -6.735364   3.191775   -4.881164 O.2        1 UNL1     -0.2917
     26 O         -7.171868   3.414031   -2.230014 O.3        1 UNL1     -0.5058
     27 O         -1.694909   1.078056   -1.585879 O.3        1 UNL1     -0.3648
     28 O         1.266139   1.559322   0.419803 O.3        1 UNL1     -0.3841
     29 O         -1.634255   0.050578   1.890264 O.3        1 UNL1     -0.3863
     30 O         -0.297809   3.455225   2.24012 O.3        1 UNL1     -0.3829
     31 H         -0.044738   2.195664   -1.509232 H        1 UNL1     0.0937
     32 H         0.0   -0.0   0.0 H        1 UNL1     0.0671
     33 H         0.073099   0.982517   2.438139 H        1 UNL1     0.0649
     34 H         -1.963405   2.443937   2.884342 H        1 UNL1     0.0683
     35 H         -2.444264   4.044876   1.089901 H        1 UNL1     0.1085
     36 H         -5.995252   3.166513   0.01979 H        1 UNL1     0.0691
     37 H         -2.274895   1.680896   -1.587096 H        1 UNL1     0.0691
     38 H         -3.979851   3.615376   -5.725155 H        1 UNL1     0.0385
     39 H         -5.052156   2.533474   -6.635204 H        1 UNL1     0.0385
     40 H         -2.839278   1.480965   -6.031262 H        1 UNL1     0.0789
     41 H         -4.783148   0.022011   -3.28212 H        1 UNL1     0.0623
     42 H         -5.819046   -2.208403   -3.401905 H        1 UNL1     0.0654
     43 H         -5.161846   -2.298612   -7.645645 H        1 UNL1     0.0654
     44 H         -4.167757   -0.082484   -7.564903 H        1 UNL1     0.0623
     45 H         -5.388146   -4.285987   -5.73047 H        1 UNL1     0.2921
     46 H         -7.676394   3.190482   -1.431959 H        1 UNL1     0.2922
     47 H         -2.490723   1.584114   -1.801388 H        1 UNL1     0.2126
     48 H         1.803297   1.08868   -0.246296 H        1 UNL1     0.2101
     49 H         -1.875402   -0.010267   2.828315 H        1 UNL1     0.2100
     50 H         0.369787   3.022795   2.811988 H        1 UNL1     0.2102
@<TRIPOS>BOND
     1     1     2    1
     2     1     6    1
     3     2     3    1
     4     3     4    1
     5     3    29    1
     6     3    33    1
     7     4     5    1
     8     5     6    1
     9     5     7    1
    10     5    35    1
    11     7     8    1
    12     8     9   ar
    13     8    13   ar
    14     9    10   ar
    15     9    36    1
    16    10    11   ar
    17    10    26    1
    18    11    12   ar
    19    11    14    1
    20    12    13   ar
    21    12    17    1
    22    13    37    1
    23    14    15    1
    24    14    25    2
    25    15    16    1
    26    15    38    1
    27    15    39    1
    28    16    17    1
    29    16    18    1
    30    16    40    1
    31    18    19   ar
    32    18    23   ar
    33    19    20   ar
    34    19    41    1
    35    20    21   ar
    36    20    42    1
    37    21    22   ar
    38    21    24    1
    39    22    23   ar
    40    22    43    1
    41    23    44    1
    42    24    45    1
    43    26    46    1
    44    27    47    1
    45    28    48    1
    46    29    49    1
    47    30    50    1
    48     1    31    1
    49     1    27    1
    50     2    32    1
    51     2    28    1
    52     4    34    1
    53     4    30    1
