@<TRIPOS>MOLECULE
*****
 50 53 0 0 0
SMALL
GASTEIGER

@<TRIPOS>ATOM
     1 C         0.643001   0.423756   2.043963 C.3        1 UNL1     0.1889
     2 C         -0.362206   0.562942   0.869175 C.3        1 UNL1     0.1342
     3 C         -0.654004   2.009879   0.442921 C.3        1 UNL1     0.1174
     4 C         -0.64901   2.987948   1.620407 C.3        1 UNL1     0.1456
     5 C         0.564471   2.78993   2.547022 C.3        1 UNL1     0.2326
     6 O         0.595817   1.447634   3.026736 O.3        1 UNL1     -0.3076
     7 O         1.80918   3.209952   1.959143 O.3        1 UNL1     -0.4605
     8 C         2.47412   2.260319   1.204438 C.ar        1 UNL1     0.1310
     9 C         2.831177   2.399282   -0.14111 C.ar        1 UNL1     0.0226
     10 C         3.520491   1.384424   -0.815508 C.ar        1 UNL1     0.1343
     11 C         3.890775   0.214639   -0.15344 C.ar        1 UNL1     0.1007
     12 C         3.503869   0.047107   1.178859 C.ar        1 UNL1     0.1389
     13 C         2.808459   1.06658   1.855993 C.ar        1 UNL1     0.0229
     14 C         4.692555   -0.853726   -0.793673 C.2        1 UNL1     0.1740
     15 C         5.188782   -1.931778   0.124538 C.3        1 UNL1     0.0520
     16 C         4.082174   -2.268603   1.11445 C.3        1 UNL1     0.1322
     17 O         3.721003   -1.107471   1.894448 O.3        1 UNL1     -0.4828
     18 C         2.896351   -3.004601   0.486074 C.ar        1 UNL1     -0.0067
     19 C         2.950891   -3.371159   -0.874395 C.ar        1 UNL1     -0.0516
     20 C         1.864981   -4.002877   -1.492209 C.ar        1 UNL1     -0.0198
     21 C         0.71865   -4.266297   -0.76395 C.ar        1 UNL1     0.1169
     22 C         0.647433   -3.947547   0.585926 C.ar        1 UNL1     -0.0198
     23 C         1.740146   -3.332494   1.208618 C.ar        1 UNL1     -0.0516
     24 O         -0.332751   -4.848491   -1.408937 O.3        1 UNL1     -0.5068
     25 O         5.012728   -0.840335   -1.979335 O.2        1 UNL1     -0.2917
     26 O         3.838194   1.581856   -2.127632 O.3        1 UNL1     -0.5058
     27 O         1.972404   0.163059   1.622642 O.3        1 UNL1     -0.3648
     28 O         -1.613658   -0.026991   1.267362 O.3        1 UNL1     -0.3841
     29 O         0.218457   2.412625   -0.614784 O.3        1 UNL1     -0.3863
     30 O         -1.856417   2.806845   2.391808 O.3        1 UNL1     -0.3829
     31 H         0.354257   -0.476245   2.597772 H        1 UNL1     0.0937
     32 H         0.0   0.0   -0.0 H        1 UNL1     0.0671
     33 H         -1.665012   2.035381   0.012884 H        1 UNL1     0.0649
     34 H         -0.656845   4.019076   1.250118 H        1 UNL1     0.0683
     35 H         0.346152   3.431904   3.409626 H        1 UNL1     0.1085
     36 H         2.621504   3.307254   -0.695858 H        1 UNL1     0.0691
     37 H         2.51774   0.911103   2.89272 H        1 UNL1     0.0691
     38 H         6.075295   -1.546239   0.639302 H        1 UNL1     0.0385
     39 H         5.48983   -2.800231   -0.471228 H        1 UNL1     0.0385
     40 H         4.504971   -2.970242   1.846205 H        1 UNL1     0.0789
     41 H         3.835871   -3.167104   -1.470065 H        1 UNL1     0.0623
     42 H         1.914741   -4.26986   -2.544947 H        1 UNL1     0.0654
     43 H         -0.239763   -4.162951   1.169359 H        1 UNL1     0.0654
     44 H         1.653845   -3.107021   2.267182 H        1 UNL1     0.0623
     45 H         -0.632135   -4.248447   -2.1111 H        1 UNL1     0.2921
     46 H         4.777722   1.383278   -2.266431 H        1 UNL1     0.2922
     47 H         2.498822   -0.17044   2.362589 H        1 UNL1     0.2126
     48 H         -1.467929   -0.991828   1.307165 H        1 UNL1     0.2101
     49 H         1.096507   2.620157   -0.25736 H        1 UNL1     0.2100
     50 H         -2.429182   2.173877   1.911178 H        1 UNL1     0.2102
@<TRIPOS>BOND
     1     1     2    1
     2     1     6    1
     3     2     3    1
     4     3     4    1
     5     3    29    1
     6     3    33    1
     7     4     5    1
     8     5     6    1
     9     5     7    1
    10     5    35    1
    11     7     8    1
    12     8     9   ar
    13     8    13   ar
    14     9    10   ar
    15     9    36    1
    16    10    11   ar
    17    10    26    1
    18    11    12   ar
    19    11    14    1
    20    12    13   ar
    21    12    17    1
    22    13    37    1
    23    14    15    1
    24    14    25    2
    25    15    16    1
    26    15    38    1
    27    15    39    1
    28    16    17    1
    29    16    18    1
    30    16    40    1
    31    18    19   ar
    32    18    23   ar
    33    19    20   ar
    34    19    41    1
    35    20    21   ar
    36    20    42    1
    37    21    22   ar
    38    21    24    1
    39    22    23   ar
    40    22    43    1
    41    23    44    1
    42    24    45    1
    43    26    46    1
    44    27    47    1
    45    28    48    1
    46    29    49    1
    47    30    50    1
    48     1    31    1
    49     1    27    1
    50     2    32    1
    51     2    28    1
    52     4    34    1
    53     4    30    1
