@<TRIPOS>MOLECULE
*****
 50 53 0 0 0
SMALL
GASTEIGER

@<TRIPOS>ATOM
     1 C         -0.369546   -1.396699   1.638131 C.3        1 UNL1     0.1889
     2 C         -0.487054   -0.971559   0.149713 C.3        1 UNL1     0.1342
     3 C         -1.925654   -0.898554   -0.384671 C.3        1 UNL1     0.1174
     4 C         -2.839787   -1.96471   0.224254 C.3        1 UNL1     0.1456
     5 C         -2.693084   -2.064424   1.7536 C.3        1 UNL1     0.2326
     6 O         -1.334991   -2.332335   2.095181 O.3        1 UNL1     -0.3076
     7 O         -3.241172   -0.93469   2.456894 O.3        1 UNL1     -0.4605
     8 C         -3.770048   -1.197696   3.707752 C.ar        1 UNL1     0.1310
     9 C         -4.612672   -2.269302   4.02231 C.ar        1 UNL1     0.0226
     10 C         -5.083841   -2.46082   5.32662 C.ar        1 UNL1     0.1343
     11 C         -4.704224   -1.598115   6.353981 C.ar        1 UNL1     0.1007
     12 C         -3.896311   -0.500872   6.043953 C.ar        1 UNL1     0.1389
     13 C         -3.424827   -0.307013   4.731874 C.ar        1 UNL1     0.0229
     14 C         -5.104476   -1.801543   7.765565 C.2        1 UNL1     0.1740
     15 C         -4.427322   -0.912644   8.766999 C.3        1 UNL1     0.0520
     16 C         -4.32207   0.48644   8.175864 C.3        1 UNL1     0.1322
     17 O         -3.550484   0.470406   6.954607 O.3        1 UNL1     -0.4828
     18 C         -5.665191   1.212491   8.068158 C.ar        1 UNL1     -0.0067
     19 C         -5.761699   2.376794   7.278667 C.ar        1 UNL1     -0.0516
     20 C         -6.962739   3.091434   7.196479 C.ar        1 UNL1     -0.0198
     21 C         -8.069867   2.657193   7.903253 C.ar        1 UNL1     0.1169
     22 C         -8.015334   1.495642   8.662638 C.ar        1 UNL1     -0.0198
     23 C         -6.819607   0.77058   8.730301 C.ar        1 UNL1     -0.0516
     24 O         -9.211478   3.399895   7.828973 O.3        1 UNL1     -0.5068
     25 O         -5.876067   -2.685353   8.128901 O.2        1 UNL1     -0.2917
     26 O         -5.903456   -3.524781   5.567038 O.3        1 UNL1     -0.5058
     27 O         -0.238339   -0.301411   2.530272 O.3        1 UNL1     -0.3648
     28 O         0.221067   -1.931687   -0.656156 O.3        1 UNL1     -0.3841
     29 O         -2.45052   0.423641   -0.248848 O.3        1 UNL1     -0.3863
     30 O         -2.523197   -3.248297   -0.357006 O.3        1 UNL1     -0.3829
     31 H         0.577759   -1.938293   1.734918 H        1 UNL1     0.0937
     32 H         0.0   0.0   0.0 H        1 UNL1     0.0671
     33 H         -1.891639   -1.08927   -1.466424 H        1 UNL1     0.0649
     34 H         -3.884446   -1.748611   -0.025527 H        1 UNL1     0.0683
     35 H         -3.270712   -2.959337   2.016953 H        1 UNL1     0.1085
     36 H         -4.898817   -3.006571   3.280236 H        1 UNL1     0.0691
     37 H         -2.798056   0.555631   4.516244 H        1 UNL1     0.0691
     38 H         -3.43572   -1.333012   8.965854 H        1 UNL1     0.0385
     39 H         -4.99795   -0.925282   9.701881 H        1 UNL1     0.0385
     40 H         -3.721739   1.087671   8.872028 H        1 UNL1     0.0789
     41 H         -4.904397   2.743374   6.721618 H        1 UNL1     0.0623
     42 H         -7.021185   3.99439   6.593763 H        1 UNL1     0.0654
     43 H         -8.880609   1.138308   9.208093 H        1 UNL1     0.0654
     44 H         -6.815838   -0.138052   9.324623 H        1 UNL1     0.0623
     45 H         -9.042654   4.263643   8.239041 H        1 UNL1     0.2921
     46 H         -5.530511   -4.065601   6.281067 H        1 UNL1     0.2922
     47 H         0.506355   0.257274   2.267287 H        1 UNL1     0.2126
     48 H         1.17312   -1.778863   -0.501327 H        1 UNL1     0.2101
     49 H         -2.135341   0.980394   -0.978562 H        1 UNL1     0.2100
     50 H         -2.780351   -3.223039   -1.301965 H        1 UNL1     0.2102
@<TRIPOS>BOND
     1     1     2    1
     2     1     6    1
     3     2     3    1
     4     3     4    1
     5     3    29    1
     6     3    33    1
     7     4     5    1
     8     5     6    1
     9     5     7    1
    10     5    35    1
    11     7     8    1
    12     8     9   ar
    13     8    13   ar
    14     9    10   ar
    15     9    36    1
    16    10    11   ar
    17    10    26    1
    18    11    12   ar
    19    11    14    1
    20    12    13   ar
    21    12    17    1
    22    13    37    1
    23    14    15    1
    24    14    25    2
    25    15    16    1
    26    15    38    1
    27    15    39    1
    28    16    17    1
    29    16    18    1
    30    16    40    1
    31    18    19   ar
    32    18    23   ar
    33    19    20   ar
    34    19    41    1
    35    20    21   ar
    36    20    42    1
    37    21    22   ar
    38    21    24    1
    39    22    23   ar
    40    22    43    1
    41    23    44    1
    42    24    45    1
    43    26    46    1
    44    27    47    1
    45    28    48    1
    46    29    49    1
    47    30    50    1
    48     1    31    1
    49     1    27    1
    50     2    32    1
    51     2    28    1
    52     4    34    1
    53     4    30    1
