@<TRIPOS>MOLECULE
*****
 50 53 0 0 0
SMALL
GASTEIGER

@<TRIPOS>ATOM
     1 C         -0.336204   -1.331643   1.698381 C.3        1 UNL1     0.1889
     2 C         -0.464717   -0.974856   0.193015 C.3        1 UNL1     0.1342
     3 C         -1.905099   -0.957932   -0.341289 C.3        1 UNL1     0.1174
     4 C         -2.794211   -2.016838   0.315457 C.3        1 UNL1     0.1456
     5 C         -2.643864   -2.046142   1.847416 C.3        1 UNL1     0.2326
     6 O         -1.27972   -2.268001   2.197785 O.3        1 UNL1     -0.3076
     7 O         -3.216825   -0.899404   2.501656 O.3        1 UNL1     -0.4605
     8 C         -3.731642   -1.117658   3.766905 C.ar        1 UNL1     0.1310
     9 C         -4.553128   -2.189038   4.13379 C.ar        1 UNL1     0.0226
     10 C         -5.01109   -2.332612   5.448918 C.ar        1 UNL1     0.1343
     11 C         -4.638819   -1.420422   6.435409 C.ar        1 UNL1     0.1007
     12 C         -3.852449   -0.323829   6.072243 C.ar        1 UNL1     0.1389
     13 C         -3.394272   -0.178245   4.749251 C.ar        1 UNL1     0.0229
     14 C         -5.024864   -1.570098   7.857633 C.2        1 UNL1     0.1740
     15 C         -4.35576   -0.627779   8.814652 C.3        1 UNL1     0.0520
     16 C         -4.279282   0.74634   8.163571 C.3        1 UNL1     0.1322
     17 O         -3.516727   0.691252   6.937788 O.3        1 UNL1     -0.4828
     18 C         -5.63559   1.444124   8.036093 C.ar        1 UNL1     -0.0067
     19 C         -6.007249   2.015287   6.801648 C.ar        1 UNL1     -0.0516
     20 C         -7.219571   2.701748   6.66377 C.ar        1 UNL1     -0.0198
     21 C         -8.063672   2.830014   7.752286 C.ar        1 UNL1     0.1169
     22 C         -7.740765   2.249714   8.972049 C.ar        1 UNL1     -0.0198
     23 C         -6.53702   1.547358   9.10528 C.ar        1 UNL1     -0.0516
     24 O         -9.21824   3.537891   7.590165 O.3        1 UNL1     -0.5068
     25 O         -5.778228   -2.450585   8.264659 O.2        1 UNL1     -0.2917
     26 O         -5.810262   -3.399135   5.741217 O.3        1 UNL1     -0.5058
     27 O         -0.229087   -0.19565   2.54149 O.3        1 UNL1     -0.3648
     28 O         0.264286   -1.953061   -0.57143 O.3        1 UNL1     -0.3841
     29 O         -2.459741   0.356711   -0.262442 O.3        1 UNL1     -0.3863
     30 O         -2.44908   -3.317144   -0.20969 O.3        1 UNL1     -0.3829
     31 H         0.62325   -1.846879   1.816954 H        1 UNL1     0.0937
     32 H         0.0   0.0   0.0 H        1 UNL1     0.0671
     33 H         -1.867762   -1.195013   -1.413724 H        1 UNL1     0.0649
     34 H         -3.84374   -1.835608   0.058465 H        1 UNL1     0.0683
     35 H         -3.200769   -2.941521   2.150783 H        1 UNL1     0.1085
     36 H         -4.831982   -2.962134   3.426199 H        1 UNL1     0.0691
     37 H         -2.784225   0.684947   4.491887 H        1 UNL1     0.0691
     38 H         -3.355537   -1.022298   9.023061 H        1 UNL1     0.0385
     39 H         -4.919046   -0.610153   9.753894 H        1 UNL1     0.0385
     40 H         -3.68428   1.386932   8.828503 H        1 UNL1     0.0789
     41 H         -5.357899   1.936297   5.934609 H        1 UNL1     0.0623
     42 H         -7.489423   3.148011   5.70981 H        1 UNL1     0.0654
     43 H         -8.401455   2.331191   9.826894 H        1 UNL1     0.0654
     44 H         -6.321659   1.09774   10.069805 H        1 UNL1     0.0623
     45 H         -8.987823   4.447606   7.341078 H        1 UNL1     0.2921
     46 H         -5.411374   -3.914997   6.459679 H        1 UNL1     0.2922
     47 H         0.513622   0.35855   2.263811 H        1 UNL1     0.2126
     48 H         1.199901   -1.878227   -0.301695 H        1 UNL1     0.2101
     49 H         -2.019227   0.939598   -0.901178 H        1 UNL1     0.2100
     50 H         -2.686841   -3.331348   -1.159943 H        1 UNL1     0.2102
@<TRIPOS>BOND
     1     1     2    1
     2     1     6    1
     3     2     3    1
     4     3     4    1
     5     3    29    1
     6     3    33    1
     7     4     5    1
     8     5     6    1
     9     5     7    1
    10     5    35    1
    11     7     8    1
    12     8     9   ar
    13     8    13   ar
    14     9    10   ar
    15     9    36    1
    16    10    11   ar
    17    10    26    1
    18    11    12   ar
    19    11    14    1
    20    12    13   ar
    21    12    17    1
    22    13    37    1
    23    14    15    1
    24    14    25    2
    25    15    16    1
    26    15    38    1
    27    15    39    1
    28    16    17    1
    29    16    18    1
    30    16    40    1
    31    18    19   ar
    32    18    23   ar
    33    19    20   ar
    34    19    41    1
    35    20    21   ar
    36    20    42    1
    37    21    22   ar
    38    21    24    1
    39    22    23   ar
    40    22    43    1
    41    23    44    1
    42    24    45    1
    43    26    46    1
    44    27    47    1
    45    28    48    1
    46    29    49    1
    47    30    50    1
    48     1    31    1
    49     1    27    1
    50     2    32    1
    51     2    28    1
    52     4    34    1
    53     4    30    1
