@<TRIPOS>MOLECULE
*****
 50 53 0 0 0
SMALL
GASTEIGER

@<TRIPOS>ATOM
     1 C         1.995401   0.831236   -0.313408 C.3        1 UNL1     0.1889
     2 C         0.586292   0.426133   -0.823549 C.3        1 UNL1     0.1342
     3 C         0.589827   -0.562109   -1.999913 C.3        1 UNL1     0.1174
     4 C         1.761529   -0.338663   -2.959238 C.3        1 UNL1     0.1456
     5 C         3.102036   -0.162659   -2.222741 C.3        1 UNL1     0.2326
     6 O         3.011601   0.921464   -1.301129 O.3        1 UNL1     -0.3076
     7 O         3.589999   -1.376339   -1.62258 O.3        1 UNL1     -0.4605
     8 C         3.072657   -2.554399   -2.130576 C.ar        1 UNL1     0.1310
     9 C         3.810923   -3.709254   -2.410888 C.ar        1 UNL1     0.0226
     10 C         3.190972   -4.861462   -2.908864 C.ar        1 UNL1     0.1343
     11 C         1.812675   -4.894542   -3.116338 C.ar        1 UNL1     0.1007
     12 C         1.070875   -3.734303   -2.878934 C.ar        1 UNL1     0.1389
     13 C         1.694864   -2.575052   -2.380731 C.ar        1 UNL1     0.0229
     14 C         1.094225   -6.111155   -3.561125 C.2        1 UNL1     0.1740
     15 C         -0.40362   -6.033256   -3.517049 C.3        1 UNL1     0.0520
     16 C         -0.828579   -4.652353   -3.997128 C.3        1 UNL1     0.1322
     17 O         -0.272872   -3.621772   -3.150863 O.3        1 UNL1     -0.4828
     18 C         -0.612643   -4.427525   -5.495643 C.ar        1 UNL1     -0.0067
     19 C         -0.593282   -5.536275   -6.366568 C.ar        1 UNL1     -0.0516
     20 C         -0.351077   -5.370319   -7.735421 C.ar        1 UNL1     -0.0198
     21 C         -0.120012   -4.104432   -8.243323 C.ar        1 UNL1     0.1169
     22 C         -0.165847   -2.989552   -7.416413 C.ar        1 UNL1     -0.0198
     23 C         -0.426316   -3.153287   -6.050616 C.ar        1 UNL1     -0.0516
     24 O         0.149822   -3.985814   -9.575059 O.3        1 UNL1     -0.5068
     25 O         1.661154   -7.155008   -3.873291 O.2        1 UNL1     -0.2917
     26 O         3.967891   -5.953967   -3.162662 O.3        1 UNL1     -0.5058
     27 O         2.42513   0.083965   0.813405 O.3        1 UNL1     -0.3648
     28 O         -0.098239   1.613702   -1.263781 O.3        1 UNL1     -0.3841
     29 O         0.508014   -1.909383   -1.530562 O.3        1 UNL1     -0.3863
     30 O         1.507758   0.842943   -3.749869 O.3        1 UNL1     -0.3829
     31 H         1.909722   1.857431   0.060304 H        1 UNL1     0.0937
     32 H         0.0   -0.0   0.0 H        1 UNL1     0.0671
     33 H         -0.330145   -0.398262   -2.578294 H        1 UNL1     0.0649
     34 H         1.839723   -1.180177   -3.656476 H        1 UNL1     0.0683
     35 H         3.798758   0.146806   -3.011847 H        1 UNL1     0.1085
     36 H         4.876703   -3.765448   -2.218333 H        1 UNL1     0.0691
     37 H         1.09522   -1.684483   -2.205209 H        1 UNL1     0.0691
     38 H         -0.713762   -6.203816   -2.480589 H        1 UNL1     0.0385
     39 H         -0.823041   -6.833924   -4.135752 H        1 UNL1     0.0385
     40 H         -1.913822   -4.576668   -3.845345 H        1 UNL1     0.0789
     41 H         -0.762701   -6.541213   -5.991006 H        1 UNL1     0.0623
     42 H         -0.326891   -6.234422   -8.39478 H        1 UNL1     0.0654
     43 H         -0.001219   -1.992139   -7.806254 H        1 UNL1     0.0654
     44 H         -0.465243   -2.259266   -5.435752 H        1 UNL1     0.0623
     45 H         -0.656851   -4.198975   -10.071606 H        1 UNL1     0.2921
     46 H         3.401294   -6.731013   -3.291422 H        1 UNL1     0.2922
     47 H         3.350606   0.282244   1.013503 H        1 UNL1     0.2126
     48 H         0.400456   1.955999   -2.030507 H        1 UNL1     0.2101
     49 H         1.400217   -2.267301   -1.397658 H        1 UNL1     0.2100
     50 H         2.292796   1.425092   -3.682557 H        1 UNL1     0.2102
@<TRIPOS>BOND
     1     1     2    1
     2     1     6    1
     3     2     3    1
     4     3     4    1
     5     3    29    1
     6     3    33    1
     7     4     5    1
     8     5     6    1
     9     5     7    1
    10     5    35    1
    11     7     8    1
    12     8     9   ar
    13     8    13   ar
    14     9    10   ar
    15     9    36    1
    16    10    11   ar
    17    10    26    1
    18    11    12   ar
    19    11    14    1
    20    12    13   ar
    21    12    17    1
    22    13    37    1
    23    14    15    1
    24    14    25    2
    25    15    16    1
    26    15    38    1
    27    15    39    1
    28    16    17    1
    29    16    18    1
    30    16    40    1
    31    18    19   ar
    32    18    23   ar
    33    19    20   ar
    34    19    41    1
    35    20    21   ar
    36    20    42    1
    37    21    22   ar
    38    21    24    1
    39    22    23   ar
    40    22    43    1
    41    23    44    1
    42    24    45    1
    43    26    46    1
    44    27    47    1
    45    28    48    1
    46    29    49    1
    47    30    50    1
    48     1    31    1
    49     1    27    1
    50     2    32    1
    51     2    28    1
    52     4    34    1
    53     4    30    1
