@<TRIPOS>MOLECULE
*****
 50 53 0 0 0
SMALL
GASTEIGER

@<TRIPOS>ATOM
     1 C         -0.373873   -1.39306   1.640246 C.3        1 UNL1     0.1889
     2 C         -0.488033   -0.970912   0.150716 C.3        1 UNL1     0.1342
     3 C         -1.925483   -0.89802   -0.386769 C.3        1 UNL1     0.1174
     4 C         -2.841602   -1.962287   0.222476 C.3        1 UNL1     0.1456
     5 C         -2.698105   -2.058946   1.752322 C.3        1 UNL1     0.2326
     6 O         -1.340902   -2.327087   2.097242 O.3        1 UNL1     -0.3076
     7 O         -3.246852   -0.927386   2.452157 O.3        1 UNL1     -0.4605
     8 C         -3.778475   -1.187446   3.702467 C.ar        1 UNL1     0.1310
     9 C         -4.622484   -2.257819   4.017504 C.ar        1 UNL1     0.0226
     10 C         -5.096461   -2.446321   5.321236 C.ar        1 UNL1     0.1343
     11 C         -4.718354   -1.58176   6.347593 C.ar        1 UNL1     0.1007
     12 C         -3.909047   -0.485715   6.036962 C.ar        1 UNL1     0.1389
     13 C         -3.434738   -0.294889   4.725457 C.ar        1 UNL1     0.0229
     14 C         -5.121642   -1.781999   7.758769 C.2        1 UNL1     0.1740
     15 C         -4.445928   -0.891502   8.759756 C.3        1 UNL1     0.0520
     16 C         -4.338494   0.506287   8.165954 C.3        1 UNL1     0.1322
     17 O         -3.564417   0.487201   6.946319 O.3        1 UNL1     -0.4828
     18 C         -5.680889   1.233038   8.053994 C.ar        1 UNL1     -0.0067
     19 C         -5.77497   2.395777   7.261907 C.ar        1 UNL1     -0.0516
     20 C         -6.975343   3.111072   7.17578 C.ar        1 UNL1     -0.0198
     21 C         -8.08422   2.679052   7.881174 C.ar        1 UNL1     0.1169
     22 C         -8.032049   1.519035   8.643063 C.ar        1 UNL1     -0.0198
     23 C         -6.836966   0.79329   8.714676 C.ar        1 UNL1     -0.0516
     24 O         -9.225161   3.422386   7.803019 O.3        1 UNL1     -0.5068
     25 O         -5.894589   -2.664525   8.122342 O.2        1 UNL1     -0.2917
     26 O         -5.917305   -3.50922   5.562165 O.3        1 UNL1     -0.5058
     27 O         -0.243738   -0.296025   2.530394 O.3        1 UNL1     -0.3648
     28 O         0.221074   -1.933189   -0.651716 O.3        1 UNL1     -0.3841
     29 O         -2.44971   0.424814   -0.254751 O.3        1 UNL1     -0.3863
     30 O         -2.524709   -3.247289   -0.355486 O.3        1 UNL1     -0.3829
     31 H         0.572856   -1.935106   1.740094 H        1 UNL1     0.0937
     32 H         0.0   0.0   0.0 H        1 UNL1     0.0671
     33 H         -1.889381   -1.090991   -1.468055 H        1 UNL1     0.0649
     34 H         -3.885596   -1.745985   -0.029894 H        1 UNL1     0.0683
     35 H         -3.276892   -2.952916   2.016334 H        1 UNL1     0.1085
     36 H         -4.907618   -2.996421   3.276366 H        1 UNL1     0.0691
     37 H         -2.806929   0.566876   4.509335 H        1 UNL1     0.0691
     38 H         -3.455028   -1.312141   8.961512 H        1 UNL1     0.0385
     39 H         -5.018481   -0.901817   9.693488 H        1 UNL1     0.0385
     40 H         -3.739176   1.10854   8.862108 H        1 UNL1     0.0789
     41 H         -4.916273   2.760615   6.705865 H        1 UNL1     0.0623
     42 H         -7.031927   4.012822   6.571084 H        1 UNL1     0.0654
     43 H         -8.898689   1.163423   9.187477 H        1 UNL1     0.0654
     44 H         -6.835046   -0.114116   9.310877 H        1 UNL1     0.0623
     45 H         -9.05658   4.286861   8.211651 H        1 UNL1     0.2921
     46 H         -5.546199   -4.048822   6.278072 H        1 UNL1     0.2922
     47 H         0.501881   0.261603   2.267786 H        1 UNL1     0.2126
     48 H         1.172913   -1.780701   -0.495249 H        1 UNL1     0.2101
     49 H         -1.9992   1.021591   -0.873371 H        1 UNL1     0.2100
     50 H         -2.779907   -3.223804   -1.30102 H        1 UNL1     0.2102
@<TRIPOS>BOND
     1     1     2    1
     2     1     6    1
     3     2     3    1
     4     3     4    1
     5     3    29    1
     6     3    33    1
     7     4     5    1
     8     5     6    1
     9     5     7    1
    10     5    35    1
    11     7     8    1
    12     8     9   ar
    13     8    13   ar
    14     9    10   ar
    15     9    36    1
    16    10    11   ar
    17    10    26    1
    18    11    12   ar
    19    11    14    1
    20    12    13   ar
    21    12    17    1
    22    13    37    1
    23    14    15    1
    24    14    25    2
    25    15    16    1
    26    15    38    1
    27    15    39    1
    28    16    17    1
    29    16    18    1
    30    16    40    1
    31    18    19   ar
    32    18    23   ar
    33    19    20   ar
    34    19    41    1
    35    20    21   ar
    36    20    42    1
    37    21    22   ar
    38    21    24    1
    39    22    23   ar
    40    22    43    1
    41    23    44    1
    42    24    45    1
    43    26    46    1
    44    27    47    1
    45    28    48    1
    46    29    49    1
    47    30    50    1
    48     1    31    1
    49     1    27    1
    50     2    32    1
    51     2    28    1
    52     4    34    1
    53     4    30    1
