@<TRIPOS>MOLECULE
*****
 50 53 0 0 0
SMALL
GASTEIGER

@<TRIPOS>ATOM
     1 C         1.407247   0.290458   1.645021 C.3        1 UNL1     0.1889
     2 C         -0.008188   0.407928   1.018376 C.3        1 UNL1     0.1342
     3 C         -0.577025   1.834664   0.982121 C.3        1 UNL1     0.1174
     4 C         -0.159626   2.670992   2.194331 C.3        1 UNL1     0.1456
     5 C         1.343906   2.552467   2.503695 C.3        1 UNL1     0.2326
     6 O         1.691306   1.185195   2.710456 O.3        1 UNL1     -0.3076
     7 O         2.181908   3.209001   1.535173 O.3        1 UNL1     -0.4605
     8 C         3.36279   3.743403   2.018351 C.ar        1 UNL1     0.1310
     9 C         3.460905   4.753045   2.981833 C.ar        1 UNL1     0.0226
     10 C         4.707084   5.216698   3.419973 C.ar        1 UNL1     0.1343
     11 C         5.886643   4.664763   2.922129 C.ar        1 UNL1     0.1007
     12 C         5.801649   3.684649   1.929689 C.ar        1 UNL1     0.1389
     13 C         4.548515   3.220475   1.487388 C.ar        1 UNL1     0.0229
     14 C         7.228639   5.057953   3.410599 C.2        1 UNL1     0.1740
     15 C         8.368916   4.209286   2.92989 C.3        1 UNL1     0.0520
     16 C         8.135573   3.874774   1.463053 C.3        1 UNL1     0.1322
     17 O         6.897551   3.149875   1.293072 O.3        1 UNL1     -0.4828
     18 C         8.304065   5.071489   0.523794 C.ar        1 UNL1     -0.0067
     19 C         8.303889   4.86277   -0.870713 C.ar        1 UNL1     -0.0516
     20 C         8.502988   5.92842   -1.756553 C.ar        1 UNL1     -0.0198
     21 C         8.710229   7.203426   -1.261338 C.ar        1 UNL1     0.1169
     22 C         8.682556   7.446107   0.105841 C.ar        1 UNL1     -0.0198
     23 C         8.465095   6.383698   0.991309 C.ar        1 UNL1     -0.0516
     24 O         8.938384   8.209901   -2.153165 O.3        1 UNL1     -0.5068
     25 O         7.415315   5.963386   4.219195 O.2        1 UNL1     -0.2917
     26 O         4.733825   6.204269   4.361022 O.3        1 UNL1     -0.5058
     27 O         2.451064   0.27181   0.684351 O.3        1 UNL1     -0.3648
     28 O         -0.91772   -0.39634   1.792074 O.3        1 UNL1     -0.3841
     29 O         -0.271921   2.470743   -0.260637 O.3        1 UNL1     -0.3863
     30 O         -0.90712   2.235157   3.350614 O.3        1 UNL1     -0.3829
     31 H         1.458859   -0.69608   2.118473 H        1 UNL1     0.0937
     32 H         0.0   0.0   -0.0 H        1 UNL1     0.0671
     33 H         -1.673059   1.759502   1.010067 H        1 UNL1     0.0649
     34 H         -0.412591   3.723849   2.027296 H        1 UNL1     0.0683
     35 H         1.455894   3.059676   3.470171 H        1 UNL1     0.1085
     36 H         2.581556   5.183551   3.448234 H        1 UNL1     0.0691
     37 H         4.509449   2.457461   0.712935 H        1 UNL1     0.0691
     38 H         8.388418   3.302334   3.543555 H        1 UNL1     0.0385
     39 H         9.309089   4.748879   3.087029 H        1 UNL1     0.0385
     40 H         8.915123   3.160219   1.166014 H        1 UNL1     0.0789
     41 H         8.15253   3.869909   -1.284195 H        1 UNL1     0.0623
     42 H         8.512538   5.752689   -2.829418 H        1 UNL1     0.0654
     43 H         8.828738   8.443163   0.503861 H        1 UNL1     0.0654
     44 H         8.439256   6.611326   2.052612 H        1 UNL1     0.0623
     45 H         9.232265   7.816649   -2.990843 H        1 UNL1     0.2921
     46 H         5.392779   5.987087   5.039272 H        1 UNL1     0.2922
     47 H         2.736959   1.173804   0.483025 H        1 UNL1     0.2126
     48 H         -0.943592   -0.00666   2.687179 H        1 UNL1     0.2101
     49 H         0.506697   3.040705   -0.157236 H        1 UNL1     0.2100
     50 H         -1.209887   1.318157   3.185824 H        1 UNL1     0.2102
@<TRIPOS>BOND
     1     1     2    1
     2     1     6    1
     3     2     3    1
     4     3     4    1
     5     3    29    1
     6     3    33    1
     7     4     5    1
     8     5     6    1
     9     5     7    1
    10     5    35    1
    11     7     8    1
    12     8     9   ar
    13     8    13   ar
    14     9    10   ar
    15     9    36    1
    16    10    11   ar
    17    10    26    1
    18    11    12   ar
    19    11    14    1
    20    12    13   ar
    21    12    17    1
    22    13    37    1
    23    14    15    1
    24    14    25    2
    25    15    16    1
    26    15    38    1
    27    15    39    1
    28    16    17    1
    29    16    18    1
    30    16    40    1
    31    18    19   ar
    32    18    23   ar
    33    19    20   ar
    34    19    41    1
    35    20    21   ar
    36    20    42    1
    37    21    22   ar
    38    21    24    1
    39    22    23   ar
    40    22    43    1
    41    23    44    1
    42    24    45    1
    43    26    46    1
    44    27    47    1
    45    28    48    1
    46    29    49    1
    47    30    50    1
    48     1    31    1
    49     1    27    1
    50     2    32    1
    51     2    28    1
    52     4    34    1
    53     4    30    1
