@<TRIPOS>MOLECULE
*****
 50 53 0 0 0
SMALL
GASTEIGER

@<TRIPOS>ATOM
     1 C         -0.319955   -1.363755   1.67589 C.3        1 UNL1     0.1889
     2 C         -0.458722   -0.980546   0.177946 C.3        1 UNL1     0.1342
     3 C         -1.902153   -0.96137   -0.347988 C.3        1 UNL1     0.1174
     4 C         -2.782228   -2.036487   0.294436 C.3        1 UNL1     0.1456
     5 C         -2.623123   -2.092638   1.824761 C.3        1 UNL1     0.2326
     6 O         -1.255933   -2.313787   2.163514 O.3        1 UNL1     -0.3076
     7 O         -3.198147   -0.960833   2.502763 O.3        1 UNL1     -0.4605
     8 C         -3.711537   -1.206121   3.763633 C.ar        1 UNL1     0.1310
     9 C         -4.530363   -2.286632   4.109059 C.ar        1 UNL1     0.0226
     10 C         -4.987026   -2.458149   5.421287 C.ar        1 UNL1     0.1343
     11 C         -4.616053   -1.565534   6.426005 C.ar        1 UNL1     0.1007
     12 C         -3.832396   -0.459971   6.084839 C.ar        1 UNL1     0.1389
     13 C         -3.375527   -0.286281   4.764788 C.ar        1 UNL1     0.0229
     14 C         -5.000705   -1.745186   7.845132 C.2        1 UNL1     0.1740
     15 C         -4.332988   -0.821179   8.820793 C.3        1 UNL1     0.0520
     16 C         -4.260053   0.566161   8.197955 C.3        1 UNL1     0.1322
     17 O         -3.498289   0.537911   6.970768 O.3        1 UNL1     -0.4828
     18 C         -5.618005   1.26337   8.085751 C.ar        1 UNL1     -0.0067
     19 C         -5.697192   2.530882   7.473088 C.ar        1 UNL1     -0.0516
     20 C         -6.915217   3.216809   7.396404 C.ar        1 UNL1     -0.0198
     21 C         -8.05721   2.650472   7.933936 C.ar        1 UNL1     0.1169
     22 C         -8.017532   1.389105   8.51378 C.ar        1 UNL1     -0.0198
     23 C         -6.803224   0.694939   8.574151 C.ar        1 UNL1     -0.0516
     24 O         -9.217789   3.364543   7.874274 O.3        1 UNL1     -0.5068
     25 O         -5.751805   -2.635514   8.234554 O.2        1 UNL1     -0.2917
     26 O         -5.783604   -3.532225   5.692227 O.3        1 UNL1     -0.5058
     27 O         -0.213805   -0.242615   2.538771 O.3        1 UNL1     -0.3648
     28 O         0.270874   -1.94106   -0.608061 O.3        1 UNL1     -0.3841
     29 O         -2.462939   0.348779   -0.242345 O.3        1 UNL1     -0.3863
     30 O         -2.43353   -3.325327   -0.25601 O.3        1 UNL1     -0.3829
     31 H         0.642726   -1.876123   1.779829 H        1 UNL1     0.0937
     32 H         0.0   0.0   0.0 H        1 UNL1     0.0671
     33 H         -1.869657   -1.178881   -1.424721 H        1 UNL1     0.0649
     34 H         -3.834083   -1.856031   0.046569 H        1 UNL1     0.0683
     35 H         -3.173809   -2.996183   2.114984 H        1 UNL1     0.1085
     36 H         -4.808022   -3.045688   3.385968 H        1 UNL1     0.0691
     37 H         -2.767595   0.583368   4.524742 H        1 UNL1     0.0691
     38 H         -3.331735   -1.217644   9.020375 H        1 UNL1     0.0385
     39 H         -4.895613   -0.824065   9.760593 H        1 UNL1     0.0385
     40 H         -3.665983   1.194325   8.875459 H        1 UNL1     0.0789
     41 H         -4.813314   3.000868   7.05175 H        1 UNL1     0.0623
     42 H         -6.96106   4.198802   6.932077 H        1 UNL1     0.0654
     43 H         -8.90879   0.929796   8.924395 H        1 UNL1     0.0654
     44 H         -6.810943   -0.292876   9.024715 H        1 UNL1     0.0623
     45 H         -9.101371   4.182226   8.384723 H        1 UNL1     0.2921
     46 H         -5.394299   -4.049636   6.41482 H        1 UNL1     0.2922
     47 H         0.513287   0.329599   2.256341 H        1 UNL1     0.2126
     48 H         1.211071   -1.848571   -0.360657 H        1 UNL1     0.2101
     49 H         -2.034947   0.94326   -0.878907 H        1 UNL1     0.2100
     50 H         -2.676557   -3.323613   -1.205034 H        1 UNL1     0.2102
@<TRIPOS>BOND
     1     1     2    1
     2     1     6    1
     3     2     3    1
     4     3     4    1
     5     3    29    1
     6     3    33    1
     7     4     5    1
     8     5     6    1
     9     5     7    1
    10     5    35    1
    11     7     8    1
    12     8     9   ar
    13     8    13   ar
    14     9    10   ar
    15     9    36    1
    16    10    11   ar
    17    10    26    1
    18    11    12   ar
    19    11    14    1
    20    12    13   ar
    21    12    17    1
    22    13    37    1
    23    14    15    1
    24    14    25    2
    25    15    16    1
    26    15    38    1
    27    15    39    1
    28    16    17    1
    29    16    18    1
    30    16    40    1
    31    18    19   ar
    32    18    23   ar
    33    19    20   ar
    34    19    41    1
    35    20    21   ar
    36    20    42    1
    37    21    22   ar
    38    21    24    1
    39    22    23   ar
    40    22    43    1
    41    23    44    1
    42    24    45    1
    43    26    46    1
    44    27    47    1
    45    28    48    1
    46    29    49    1
    47    30    50    1
    48     1    31    1
    49     1    27    1
    50     2    32    1
    51     2    28    1
    52     4    34    1
    53     4    30    1
