@<TRIPOS>MOLECULE
*****
 50 53 0 0 0
SMALL
GASTEIGER

@<TRIPOS>ATOM
     1 C         1.007518   1.937542   -0.040534 C.3        1 UNL1     0.1889
     2 C         0.115247   0.873576   0.653563 C.3        1 UNL1     0.1342
     3 C         -1.276096   1.375713   1.06888 C.3        1 UNL1     0.1174
     4 C         -1.269473   2.839373   1.516959 C.3        1 UNL1     0.1456
     5 C         -0.484891   3.748142   0.553147 C.3        1 UNL1     0.2326
     6 O         0.852422   3.27279   0.417125 O.3        1 UNL1     -0.3076
     7 O         -1.144982   3.949735   -0.709771 O.3        1 UNL1     -0.4605
     8 C         -1.015213   5.208986   -1.267423 C.ar        1 UNL1     0.1310
     9 C         -0.540082   6.344594   -0.602631 C.ar        1 UNL1     0.0226
     10 C         -0.429257   7.575181   -1.260867 C.ar        1 UNL1     0.1343
     11 C         -0.768769   7.694568   -2.607833 C.ar        1 UNL1     0.1007
     12 C         -1.283166   6.577366   -3.271189 C.ar        1 UNL1     0.1389
     13 C         -1.396995   5.340769   -2.608391 C.ar        1 UNL1     0.0229
     14 C         -0.592366   8.949593   -3.374611 C.2        1 UNL1     0.1740
     15 C         -0.795849   8.838744   -4.857128 C.3        1 UNL1     0.0520
     16 C         -1.98603   7.924451   -5.113048 C.3        1 UNL1     0.1322
     17 O         -1.749215   6.608896   -4.565048 O.3        1 UNL1     -0.4828
     18 C         -3.331683   8.541083   -4.723549 C.ar        1 UNL1     -0.0067
     19 C         -3.673585   8.652778   -3.360156 C.ar        1 UNL1     -0.0516
     20 C         -4.915714   9.168162   -2.970979 C.ar        1 UNL1     -0.0198
     21 C         -5.825503   9.56755   -3.933581 C.ar        1 UNL1     0.1169
     22 C         -5.504705   9.501032   -5.283212 C.ar        1 UNL1     -0.0198
     23 C         -4.255447   9.002879   -5.672126 C.ar        1 UNL1     -0.0516
     24 O         -7.039821   10.029057   -3.517837 O.3        1 UNL1     -0.5068
     25 O         -0.225501   10.006128   -2.867042 O.2        1 UNL1     -0.2917
     26 O         0.040193   8.644503   -0.555351 O.3        1 UNL1     -0.5058
     27 O         0.978533   1.862684   -1.456988 O.3        1 UNL1     -0.3648
     28 O         0.783543   0.426773   1.847905 O.3        1 UNL1     -0.3841
     29 O         -2.23621   1.115331   0.04296 O.3        1 UNL1     -0.3863
     30 O         -0.673459   2.930368   2.829276 O.3        1 UNL1     -0.3829
     31 H         2.04348   1.695883   0.221121 H        1 UNL1     0.0937
     32 H         -0.0   0.0   0.0 H        1 UNL1     0.0671
     33 H         -1.6034   0.780386   1.932696 H        1 UNL1     0.0649
     34 H         -2.297407   3.208037   1.6055 H        1 UNL1     0.0683
     35 H         -0.429897   4.708521   1.080902 H        1 UNL1     0.1085
     36 H         -0.207322   6.304078   0.428751 H        1 UNL1     0.0691
     37 H         -1.801469   4.486395   -3.14685 H        1 UNL1     0.0691
     38 H         0.121481   8.42265   -5.287126 H        1 UNL1     0.0385
     39 H         -0.945722   9.840206   -5.274729 H        1 UNL1     0.0385
     40 H         -2.043264   7.763648   -6.198122 H        1 UNL1     0.0789
     41 H         -2.980473   8.337662   -2.585594 H        1 UNL1     0.0623
     42 H         -5.172275   9.238162   -1.916803 H        1 UNL1     0.0654
     43 H         -6.203854   9.825087   -6.044847 H        1 UNL1     0.0654
     44 H         -4.03421   8.974992   -6.734727 H        1 UNL1     0.0623
     45 H         -7.712103   9.363506   -3.736461 H        1 UNL1     0.2921
     46 H         0.165182   9.397566   -1.154256 H        1 UNL1     0.2922
     47 H         1.217687   0.972345   -1.75018 H        1 UNL1     0.2126
     48 H         0.130521   0.483867   2.571808 H        1 UNL1     0.2101
     49 H         -3.12566   1.341836   0.358187 H        1 UNL1     0.2100
     50 H         -0.639107   2.027572   3.208079 H        1 UNL1     0.2102
@<TRIPOS>BOND
     1     1     2    1
     2     1     6    1
     3     2     3    1
     4     3     4    1
     5     3    29    1
     6     3    33    1
     7     4     5    1
     8     5     6    1
     9     5     7    1
    10     5    35    1
    11     7     8    1
    12     8     9   ar
    13     8    13   ar
    14     9    10   ar
    15     9    36    1
    16    10    11   ar
    17    10    26    1
    18    11    12   ar
    19    11    14    1
    20    12    13   ar
    21    12    17    1
    22    13    37    1
    23    14    15    1
    24    14    25    2
    25    15    16    1
    26    15    38    1
    27    15    39    1
    28    16    17    1
    29    16    18    1
    30    16    40    1
    31    18    19   ar
    32    18    23   ar
    33    19    20   ar
    34    19    41    1
    35    20    21   ar
    36    20    42    1
    37    21    22   ar
    38    21    24    1
    39    22    23   ar
    40    22    43    1
    41    23    44    1
    42    24    45    1
    43    26    46    1
    44    27    47    1
    45    28    48    1
    46    29    49    1
    47    30    50    1
    48     1    31    1
    49     1    27    1
    50     2    32    1
    51     2    28    1
    52     4    34    1
    53     4    30    1
