@<TRIPOS>MOLECULE
*****
 50 53 0 0 0
SMALL
GASTEIGER

@<TRIPOS>ATOM
     1 C         -0.216574   -1.18733   1.82048 C.3        1 UNL1     0.1889
     2 C         -0.523601   -0.907748   0.324649 C.3        1 UNL1     0.1342
     3 C         -2.017133   -0.77111   -0.008753 C.3        1 UNL1     0.1174
     4 C         -2.900774   -1.690637   0.837867 C.3        1 UNL1     0.1456
     5 C         -2.537107   -1.645842   2.333228 C.3        1 UNL1     0.2326
     6 O         -1.16451   -1.988698   2.510133 O.3        1 UNL1     -0.3076
     7 O         -2.898566   -0.40901   2.974255 O.3        1 UNL1     -0.4605
     8 C         -3.242641   -0.497069   4.311187 C.ar        1 UNL1     0.1310
     9 C         -4.099403   -1.453785   4.866123 C.ar        1 UNL1     0.0226
     10 C         -4.373213   -1.470625   6.238948 C.ar        1 UNL1     0.1343
     11 C         -3.777569   -0.544887   7.094551 C.ar        1 UNL1     0.1007
     12 C         -2.952481   0.440723   6.546293 C.ar        1 UNL1     0.1389
     13 C         -2.67941   0.459069   5.165523 C.ar        1 UNL1     0.0229
     14 C         -3.965585   -0.568871   8.563642 C.2        1 UNL1     0.1740
     15 C         -3.079019   0.354256   9.346832 C.3        1 UNL1     0.0520
     16 C         -2.968761   1.671868   8.592048 C.3        1 UNL1     0.1322
     17 O         -2.400691   1.46521   7.279928 O.3        1 UNL1     -0.4828
     18 C         -4.257428   2.497672   8.602509 C.ar        1 UNL1     -0.0067
     19 C         -4.748778   3.02984   7.392722 C.ar        1 UNL1     -0.0516
     20 C         -5.898203   3.828857   7.373815 C.ar        1 UNL1     -0.0198
     21 C         -6.559612   4.108459   8.556265 C.ar        1 UNL1     0.1169
     22 C         -6.11927   3.571399   9.758972 C.ar        1 UNL1     -0.0198
     23 C         -4.980463   2.757214   9.775647 C.ar        1 UNL1     -0.0516
     24 O         -7.653654   4.921309   8.503844 O.3        1 UNL1     -0.5068
     25 O         -4.731456   -1.340736   9.134739 O.2        1 UNL1     -0.2917
     26 O         -5.218359   -2.429268   6.716775 O.3        1 UNL1     -0.5058
     27 O         0.117839   -0.021457   2.556479 O.3        1 UNL1     -0.3648
     28 O         -0.007996   -2.000087   -0.458711 O.3        1 UNL1     -0.3841
     29 O         -2.426489   0.596814   0.049072 O.3        1 UNL1     -0.3863
     30 O         -2.760059   -3.048468   0.366503 O.3        1 UNL1     -0.3829
     31 H         0.696226   -1.792549   1.844658 H        1 UNL1     0.0937
     32 H         0.0   0.0   0.0 H        1 UNL1     0.0671
     33 H         -2.155898   -1.073156   -1.056242 H        1 UNL1     0.0649
     34 H         -3.954006   -1.415656   0.713417 H        1 UNL1     0.0683
     35 H         -3.128192   -2.458559   2.773668 H        1 UNL1     0.1085
     36 H         -4.549485   -2.23452   4.2628 H        1 UNL1     0.0691
     37 H         -2.034616   1.237523   4.763348 H        1 UNL1     0.0691
     38 H         -2.100778   -0.128729   9.443262 H        1 UNL1     0.0385
     39 H         -3.495913   0.486019   10.351131 H        1 UNL1     0.0385
     40 H         -2.225958   2.285739   9.119234 H        1 UNL1     0.0789
     41 H         -4.242419   2.832526   6.45234 H        1 UNL1     0.0623
     42 H         -6.260352   4.243151   6.436148 H        1 UNL1     0.0654
     43 H         -6.638333   3.771632   10.688698 H        1 UNL1     0.0654
     44 H         -4.670768   2.345866   10.731538 H        1 UNL1     0.0623
     45 H         -7.377189   5.785799   8.158965 H        1 UNL1     0.2921
     46 H         -4.769596   -2.940497   7.408634 H        1 UNL1     0.2922
     47 H         0.862979   0.434562   2.140941 H        1 UNL1     0.2126
     48 H         0.95797   -2.015224   -0.315833 H        1 UNL1     0.2101
     49 H         -2.027774   1.091884   -0.684226 H        1 UNL1     0.2100
     50 H         -3.125951   -3.091961   -0.541211 H        1 UNL1     0.2102
@<TRIPOS>BOND
     1     1     2    1
     2     1     6    1
     3     2     3    1
     4     3     4    1
     5     3    29    1
     6     3    33    1
     7     4     5    1
     8     5     6    1
     9     5     7    1
    10     5    35    1
    11     7     8    1
    12     8     9   ar
    13     8    13   ar
    14     9    10   ar
    15     9    36    1
    16    10    11   ar
    17    10    26    1
    18    11    12   ar
    19    11    14    1
    20    12    13   ar
    21    12    17    1
    22    13    37    1
    23    14    15    1
    24    14    25    2
    25    15    16    1
    26    15    38    1
    27    15    39    1
    28    16    17    1
    29    16    18    1
    30    16    40    1
    31    18    19   ar
    32    18    23   ar
    33    19    20   ar
    34    19    41    1
    35    20    21   ar
    36    20    42    1
    37    21    22   ar
    38    21    24    1
    39    22    23   ar
    40    22    43    1
    41    23    44    1
    42    24    45    1
    43    26    46    1
    44    27    47    1
    45    28    48    1
    46    29    49    1
    47    30    50    1
    48     1    31    1
    49     1    27    1
    50     2    32    1
    51     2    28    1
    52     4    34    1
    53     4    30    1
