@<TRIPOS>MOLECULE
*****
 50 53 0 0 0
SMALL
GASTEIGER

@<TRIPOS>ATOM
     1 C         0.082666   -0.394678   2.146672 C.3        1 UNL1     0.1889
     2 C         -0.699162   -0.089779   0.840639 C.3        1 UNL1     0.1342
     3 C         -1.577771   1.169261   0.898319 C.3        1 UNL1     0.1174
     4 C         -2.194637   1.399714   2.280161 C.3        1 UNL1     0.1456
     5 C         -1.169869   1.24019   3.418039 C.3        1 UNL1     0.2326
     6 O         -0.574802   -0.054104   3.35834 O.3        1 UNL1     -0.3076
     7 O         -0.203508   2.305312   3.472649 O.3        1 UNL1     -0.4605
     8 C         1.005579   1.996845   4.069711 C.ar        1 UNL1     0.1310
     9 C         1.736779   2.847422   4.905873 C.ar        1 UNL1     0.0226
     10 C         2.946374   2.435654   5.477912 C.ar        1 UNL1     0.1343
     11 C         3.442684   1.153483   5.246491 C.ar        1 UNL1     0.1007
     12 C         2.742236   0.309597   4.380459 C.ar        1 UNL1     0.1389
     13 C         1.527364   0.724806   3.803295 C.ar        1 UNL1     0.0229
     14 C         4.671995   0.637188   5.891773 C.2        1 UNL1     0.1740
     15 C         4.935772   -0.828371   5.707085 C.3        1 UNL1     0.0520
     16 C         4.585786   -1.204022   4.273783 C.3        1 UNL1     0.1322
     17 O         3.194096   -0.931984   3.99762 O.3        1 UNL1     -0.4828
     18 C         5.559994   -0.643911   3.234592 C.ar        1 UNL1     -0.0067
     19 C         5.988532   0.69543   3.338199 C.ar        1 UNL1     -0.0516
     20 C         6.841614   1.252963   2.378318 C.ar        1 UNL1     -0.0198
     21 C         7.26635   0.485485   1.30855 C.ar        1 UNL1     0.1169
     22 C         6.888384   -0.84627   1.197147 C.ar        1 UNL1     -0.0198
     23 C         6.050144   -1.409425   2.16682 C.ar        1 UNL1     -0.0516
     24 O         8.066117   1.073629   0.37321 O.3        1 UNL1     -0.5068
     25 O         5.401361   1.32311   6.603124 O.2        1 UNL1     -0.2917
     26 O         3.611281   3.313562   6.283369 O.3        1 UNL1     -0.5058
     27 O         1.421174   0.075216   2.127096 O.3        1 UNL1     -0.3648
     28 O         -1.5655   -1.20409   0.556958 O.3        1 UNL1     -0.3841
     29 O         -0.86376   2.308455   0.414007 O.3        1 UNL1     -0.3863
     30 O         -3.266096   0.453185   2.484481 O.3        1 UNL1     -0.3829
     31 H         0.180207   -1.484207   2.205761 H        1 UNL1     0.0937
     32 H         0.0   0.0   0.0 H        1 UNL1     0.0671
     33 H         -2.412258   1.028252   0.197271 H        1 UNL1     0.0649
     34 H         -2.637361   2.400676   2.32987 H        1 UNL1     0.0683
     35 H         -1.780035   1.268975   4.329493 H        1 UNL1     0.1085
     36 H         1.376655   3.835852   5.169381 H        1 UNL1     0.0691
     37 H         1.001842   0.049394   3.131626 H        1 UNL1     0.0691
     38 H         4.307799   -1.370577   6.422059 H        1 UNL1     0.0385
     39 H         5.984229   -1.03722   5.945618 H        1 UNL1     0.0385
     40 H         4.672964   -2.296127   4.19488 H        1 UNL1     0.0789
     41 H         5.661886   1.321357   4.163528 H        1 UNL1     0.0623
     42 H         7.15549   2.290432   2.462876 H        1 UNL1     0.0654
     43 H         7.227281   -1.460651   0.371559 H        1 UNL1     0.0654
     44 H         5.783317   -2.455808   2.053993 H        1 UNL1     0.0623
     45 H         7.651969   1.906834   0.095779 H        1 UNL1     0.2921
     46 H         3.160739   3.370943   7.140768 H        1 UNL1     0.2922
     47 H         1.904641   -0.259061   2.895457 H        1 UNL1     0.2126
     48 H         -2.479898   -0.889002   0.69234 H        1 UNL1     0.2101
     49 H         -1.351597   3.119457   0.62868 H        1 UNL1     0.2100
     50 H         -3.15338   0.057474   3.373537 H        1 UNL1     0.2102
@<TRIPOS>BOND
     1     1     2    1
     2     1     6    1
     3     2     3    1
     4     3     4    1
     5     3    29    1
     6     3    33    1
     7     4     5    1
     8     5     6    1
     9     5     7    1
    10     5    35    1
    11     7     8    1
    12     8     9   ar
    13     8    13   ar
    14     9    10   ar
    15     9    36    1
    16    10    11   ar
    17    10    26    1
    18    11    12   ar
    19    11    14    1
    20    12    13   ar
    21    12    17    1
    22    13    37    1
    23    14    15    1
    24    14    25    2
    25    15    16    1
    26    15    38    1
    27    15    39    1
    28    16    17    1
    29    16    18    1
    30    16    40    1
    31    18    19   ar
    32    18    23   ar
    33    19    20   ar
    34    19    41    1
    35    20    21   ar
    36    20    42    1
    37    21    22   ar
    38    21    24    1
    39    22    23   ar
    40    22    43    1
    41    23    44    1
    42    24    45    1
    43    26    46    1
    44    27    47    1
    45    28    48    1
    46    29    49    1
    47    30    50    1
    48     1    31    1
    49     1    27    1
    50     2    32    1
    51     2    28    1
    52     4    34    1
    53     4    30    1
