@<TRIPOS>MOLECULE
*****
 50 53 0 0 0
SMALL
GASTEIGER

@<TRIPOS>ATOM
     1 C         -0.332355   -1.328236   1.701803 C.3        1 UNL1     0.1889
     2 C         -0.462602   -0.975333   0.19567 C.3        1 UNL1     0.1342
     3 C         -1.903372   -0.962625   -0.337702 C.3        1 UNL1     0.1174
     4 C         -2.789886   -2.021755   0.322185 C.3        1 UNL1     0.1456
     5 C         -2.638456   -2.047069   1.85411 C.3        1 UNL1     0.2326
     6 O         -1.273629   -2.265309   2.204091 O.3        1 UNL1     -0.3076
     7 O         -3.213313   -0.899929   2.505976 O.3        1 UNL1     -0.4605
     8 C         -3.723016   -1.11524   3.773798 C.ar        1 UNL1     0.1310
     9 C         -4.539373   -2.18817   4.147539 C.ar        1 UNL1     0.0226
     10 C         -4.99232   -2.328408   5.464761 C.ar        1 UNL1     0.1343
     11 C         -4.619977   -1.411157   6.44652 C.ar        1 UNL1     0.1007
     12 C         -3.838814   -0.313127   6.076525 C.ar        1 UNL1     0.1389
     13 C         -3.385684   -0.170907   4.751429 C.ar        1 UNL1     0.0229
     14 C         -5.00062   -1.556833   7.870614 C.2        1 UNL1     0.1740
     15 C         -4.331657   -0.608498   8.82177 C.3        1 UNL1     0.0520
     16 C         -4.26236   0.763412   8.16525 C.3        1 UNL1     0.1322
     17 O         -3.503802   0.706425   6.937076 O.3        1 UNL1     -0.4828
     18 C         -5.621605   1.455827   8.03979 C.ar        1 UNL1     -0.0067
     19 C         -6.000715   2.018518   6.803721 C.ar        1 UNL1     -0.0516
     20 C         -7.215983   2.70004   6.667283 C.ar        1 UNL1     -0.0198
     21 C         -8.055659   2.83178   7.758802 C.ar        1 UNL1     0.1169
     22 C         -7.725334   2.2597   8.980461 C.ar        1 UNL1     -0.0198
     23 C         -6.518609   1.562228   9.112383 C.ar        1 UNL1     -0.0516
     24 O         -9.213356   3.534772   7.597738 O.3        1 UNL1     -0.5068
     25 O         -5.749408   -2.438476   8.283541 O.2        1 UNL1     -0.2917
     26 O         -5.786636   -3.396683   5.763822 O.3        1 UNL1     -0.5058
     27 O         -0.226989   -0.190003   2.542107 O.3        1 UNL1     -0.3648
     28 O         0.267881   -1.953888   -0.566912 O.3        1 UNL1     -0.3841
     29 O         -2.460637   0.351073   -0.261641 O.3        1 UNL1     -0.3863
     30 O         -2.442459   -3.322615   -0.200067 O.3        1 UNL1     -0.3829
     31 H         0.628225   -1.841232   1.820968 H        1 UNL1     0.0937
     32 H         0.0   0.0   0.0 H        1 UNL1     0.0671
     33 H         -1.866269   -1.202207   -1.40959 H        1 UNL1     0.0649
     34 H         -3.839954   -1.843279   0.065466 H        1 UNL1     0.0683
     35 H         -3.193333   -2.942848   2.160002 H        1 UNL1     0.1085
     36 H         -4.81785   -2.964937   3.443831 H        1 UNL1     0.0691
     37 H         -2.779639   0.693492   4.488719 H        1 UNL1     0.0691
     38 H         -3.32931   -0.998627   9.028236 H        1 UNL1     0.0385
     39 H         -4.891791   -0.589341   9.762865 H        1 UNL1     0.0385
     40 H         -3.667407   1.408652   8.825715 H        1 UNL1     0.0789
     41 H         -5.354969   1.936683   5.934258 H        1 UNL1     0.0623
     42 H         -7.491611   3.139815   5.711961 H        1 UNL1     0.0654
     43 H         -8.382483   2.343912   9.837767 H        1 UNL1     0.0654
     44 H         -6.297414   1.118974   10.078532 H        1 UNL1     0.0623
     45 H         -8.987326   4.442289   7.336892 H        1 UNL1     0.2921
     46 H         -5.382748   -3.909161   6.481912 H        1 UNL1     0.2922
     47 H         0.516097   0.363625   2.264297 H        1 UNL1     0.2126
     48 H         1.200777   -1.88818   -0.285631 H        1 UNL1     0.2101
     49 H         -2.021619   0.933361   -0.901952 H        1 UNL1     0.2100
     50 H         -2.675608   -3.337662   -1.151449 H        1 UNL1     0.2102
@<TRIPOS>BOND
     1     1     2    1
     2     1     6    1
     3     2     3    1
     4     3     4    1
     5     3    29    1
     6     3    33    1
     7     4     5    1
     8     5     6    1
     9     5     7    1
    10     5    35    1
    11     7     8    1
    12     8     9   ar
    13     8    13   ar
    14     9    10   ar
    15     9    36    1
    16    10    11   ar
    17    10    26    1
    18    11    12   ar
    19    11    14    1
    20    12    13   ar
    21    12    17    1
    22    13    37    1
    23    14    15    1
    24    14    25    2
    25    15    16    1
    26    15    38    1
    27    15    39    1
    28    16    17    1
    29    16    18    1
    30    16    40    1
    31    18    19   ar
    32    18    23   ar
    33    19    20   ar
    34    19    41    1
    35    20    21   ar
    36    20    42    1
    37    21    22   ar
    38    21    24    1
    39    22    23   ar
    40    22    43    1
    41    23    44    1
    42    24    45    1
    43    26    46    1
    44    27    47    1
    45    28    48    1
    46    29    49    1
    47    30    50    1
    48     1    31    1
    49     1    27    1
    50     2    32    1
    51     2    28    1
    52     4    34    1
    53     4    30    1
