@<TRIPOS>MOLECULE
*****
 50 53 0 0 0
SMALL
GASTEIGER

@<TRIPOS>ATOM
     1 C         -0.33108   -1.327554   1.702584 C.3        1 UNL1     0.1889
     2 C         -0.462052   -0.975462   0.196324 C.3        1 UNL1     0.1342
     3 C         -1.903024   -0.963724   -0.336525 C.3        1 UNL1     0.1174
     4 C         -2.788777   -2.022961   0.324213 C.3        1 UNL1     0.1456
     5 C         -2.636772   -2.04744   1.856094 C.3        1 UNL1     0.2326
     6 O         -1.27171   -2.264838   2.205683 O.3        1 UNL1     -0.3076
     7 O         -3.211951   -0.900258   2.507603 O.3        1 UNL1     -0.4605
     8 C         -3.721083   -1.11519   3.775718 C.ar        1 UNL1     0.1310
     9 C         -4.536778   -2.188334   4.150291 C.ar        1 UNL1     0.0226
     10 C         -4.989173   -2.32814   5.467749 C.ar        1 UNL1     0.1343
     11 C         -4.616918   -1.410219   6.448916 C.ar        1 UNL1     0.1007
     12 C         -3.836429   -0.311991   6.078089 C.ar        1 UNL1     0.1389
     13 C         -3.383856   -0.170206   4.752757 C.ar        1 UNL1     0.0229
     14 C         -4.996967   -1.555375   7.873222 C.2        1 UNL1     0.1740
     15 C         -4.328119   -0.60624   8.823661 C.3        1 UNL1     0.0520
     16 C         -4.259736   0.765377   8.166435 C.3        1 UNL1     0.1322
     17 O         -3.501601   0.708152   6.938011 O.3        1 UNL1     -0.4828
     18 C         -5.619365   1.457065   8.041131 C.ar        1 UNL1     -0.0067
     19 C         -5.999205   2.018957   6.804922 C.ar        1 UNL1     -0.0516
     20 C         -7.214857   2.699815   6.668592 C.ar        1 UNL1     -0.0198
     21 C         -8.054197   2.831686   7.760355 C.ar        1 UNL1     0.1169
     22 C         -7.723143   2.260375   8.982175 C.ar        1 UNL1     -0.0198
     23 C         -6.516028   1.563558   9.114001 C.ar        1 UNL1     -0.0516
     24 O         -9.212297   3.534031   7.599367 O.3        1 UNL1     -0.5068
     25 O         -5.745172   -2.437179   8.286861 O.2        1 UNL1     -0.2917
     26 O         -5.782855   -3.396655   5.767632 O.3        1 UNL1     -0.5058
     27 O         -0.225962   -0.188852   2.542284 O.3        1 UNL1     -0.3648
     28 O         0.26863   -1.954037   -0.566041 O.3        1 UNL1     -0.3841
     29 O         -2.460905   0.349738   -0.260911 O.3        1 UNL1     -0.3863
     30 O         -2.440905   -3.32391   -0.197521 O.3        1 UNL1     -0.3829
     31 H         0.629795   -1.84002   1.82165 H        1 UNL1     0.0937
     32 H         0.0   0.0   0.0 H        1 UNL1     0.0671
     33 H         -1.866198   -1.203821   -1.408307 H        1 UNL1     0.0649
     34 H         -3.839026   -1.845127   0.067792 H        1 UNL1     0.0683
     35 H         -3.191097   -2.943338   2.162635 H        1 UNL1     0.1085
     36 H         -4.815132   -2.965586   3.447071 H        1 UNL1     0.0691
     37 H         -2.77833   0.694359   4.489395 H        1 UNL1     0.0691
     38 H         -3.325506   -0.995775   9.029953 H        1 UNL1     0.0385
     39 H         -4.887918   -0.58689   9.764953 H        1 UNL1     0.0385
     40 H         -3.664856   1.411237   8.826361 H        1 UNL1     0.0789
     41 H         -5.353738   1.937006   5.935263 H        1 UNL1     0.0623
     42 H         -7.491051   3.138981   5.713154 H        1 UNL1     0.0654
     43 H         -8.380019   2.34469   9.839681 H        1 UNL1     0.0654
     44 H         -6.294261   1.120893   10.080288 H        1 UNL1     0.0623
     45 H         -8.986808   4.441529   7.337988 H        1 UNL1     0.2921
     46 H         -5.378452   -3.908578   6.485827 H        1 UNL1     0.2922
     47 H         0.516856   0.364913   2.264033 H        1 UNL1     0.2126
     48 H         1.201597   -1.887733   -0.285135 H        1 UNL1     0.2101
     49 H         -2.022407   0.931923   -0.901673 H        1 UNL1     0.2100
     50 H         -2.674395   -3.339543   -1.14881 H        1 UNL1     0.2102
@<TRIPOS>BOND
     1     1     2    1
     2     1     6    1
     3     2     3    1
     4     3     4    1
     5     3    29    1
     6     3    33    1
     7     4     5    1
     8     5     6    1
     9     5     7    1
    10     5    35    1
    11     7     8    1
    12     8     9   ar
    13     8    13   ar
    14     9    10   ar
    15     9    36    1
    16    10    11   ar
    17    10    26    1
    18    11    12   ar
    19    11    14    1
    20    12    13   ar
    21    12    17    1
    22    13    37    1
    23    14    15    1
    24    14    25    2
    25    15    16    1
    26    15    38    1
    27    15    39    1
    28    16    17    1
    29    16    18    1
    30    16    40    1
    31    18    19   ar
    32    18    23   ar
    33    19    20   ar
    34    19    41    1
    35    20    21   ar
    36    20    42    1
    37    21    22   ar
    38    21    24    1
    39    22    23   ar
    40    22    43    1
    41    23    44    1
    42    24    45    1
    43    26    46    1
    44    27    47    1
    45    28    48    1
    46    29    49    1
    47    30    50    1
    48     1    31    1
    49     1    27    1
    50     2    32    1
    51     2    28    1
    52     4    34    1
    53     4    30    1
