@<TRIPOS>MOLECULE
*****
 50 53 0 0 0
SMALL
GASTEIGER

@<TRIPOS>ATOM
     1 C         -0.338791   -1.332839   1.696928 C.3        1 UNL1     0.1889
     2 C         -0.466086   -0.974434   0.191842 C.3        1 UNL1     0.1342
     3 C         -1.906176   -0.955115   -0.343164 C.3        1 UNL1     0.1174
     4 C         -2.796998   -2.013492   0.312116 C.3        1 UNL1     0.1456
     5 C         -2.647457   -2.044468   1.844121 C.3        1 UNL1     0.2326
     6 O         -1.283779   -2.268446   2.194957 O.3        1 UNL1     -0.3076
     7 O         -3.219248   -0.897614   2.49918 O.3        1 UNL1     -0.4605
     8 C         -3.731584   -1.115591   3.765484 C.ar        1 UNL1     0.1310
     9 C         -4.552259   -2.186951   4.13424 C.ar        1 UNL1     0.0226
     10 C         -5.00765   -2.330229   5.450292 C.ar        1 UNL1     0.1343
     11 C         -4.633544   -1.417754   6.435824 C.ar        1 UNL1     0.1007
     12 C         -3.847981   -0.321183   6.07085 C.ar        1 UNL1     0.1389
     13 C         -3.392389   -0.175896   4.746932 C.ar        1 UNL1     0.0229
     14 C         -5.016809   -1.5671   7.858834 C.2        1 UNL1     0.1740
     15 C         -4.34593   -0.624476   8.814309 C.3        1 UNL1     0.0520
     16 C         -4.270842   0.749483   8.16273 C.3        1 UNL1     0.1322
     17 O         -3.510667   0.69415   6.93548 O.3        1 UNL1     -0.4828
     18 C         -5.627459   1.447112   8.037711 C.ar        1 UNL1     -0.0067
     19 C         -6.001569   2.017926   6.803844 C.ar        1 UNL1     -0.0516
     20 C         -7.214219   2.704242   6.668149 C.ar        1 UNL1     -0.0198
     21 C         -8.056213   2.832712   7.758272 C.ar        1 UNL1     0.1169
     22 C         -7.730883   2.252753   8.977553 C.ar        1 UNL1     -0.0198
     23 C         -6.526818   1.550539   9.108622 C.ar        1 UNL1     -0.0516
     24 O         -9.211159   3.540444   7.598215 O.3        1 UNL1     -0.5068
     25 O         -5.7693   -2.44755   8.267549 O.2        1 UNL1     -0.2917
     26 O         -5.806155   -3.396749   5.744418 O.3        1 UNL1     -0.5058
     27 O         -0.230615   -0.1978   2.541186 O.3        1 UNL1     -0.3648
     28 O         0.262023   -1.952853   -0.573181 O.3        1 UNL1     -0.3841
     29 O         -2.459142   0.360175   -0.263326 O.3        1 UNL1     -0.3863
     30 O         -2.453302   -3.31374   -0.214113 O.3        1 UNL1     -0.3829
     31 H         0.619929   -1.849441   1.815483 H        1 UNL1     0.0937
     32 H         0.0   0.0   0.0 H        1 UNL1     0.0671
     33 H         -1.868612   -1.19121   -1.415809 H        1 UNL1     0.0649
     34 H         -3.846161   -1.830643   0.054775 H        1 UNL1     0.0683
     35 H         -3.205681   -2.939412   2.146346 H        1 UNL1     0.1085
     36 H         -4.832417   -2.960253   3.42739 H        1 UNL1     0.0691
     37 H         -2.782922   0.687285   4.488161 H        1 UNL1     0.0691
     38 H         -3.345268   -1.018852   9.020874 H        1 UNL1     0.0385
     39 H         -4.90739   -0.60666   9.754641 H        1 UNL1     0.0385
     40 H         -3.674607   1.390299   8.826339 H        1 UNL1     0.0789
     41 H         -5.353899   1.938772   5.935565 H        1 UNL1     0.0623
     42 H         -7.485966   3.150237   5.714601 H        1 UNL1     0.0654
     43 H         -8.389917   2.334389   9.83366 H        1 UNL1     0.0654
     44 H         -6.309541   1.101188   10.072842 H        1 UNL1     0.0623
     45 H         -8.981309   4.450115   7.348447 H        1 UNL1     0.2921
     46 H         -5.405825   -3.912391   6.462234 H        1 UNL1     0.2922
     47 H         0.51211   0.356407   2.263565 H        1 UNL1     0.2126
     48 H         1.1976   -1.8795   -0.302907 H        1 UNL1     0.2101
     49 H         -2.017547   0.943102   -0.90128 H        1 UNL1     0.2100
     50 H         -2.690605   -3.326718   -1.164498 H        1 UNL1     0.2102
@<TRIPOS>BOND
     1     1     2    1
     2     1     6    1
     3     2     3    1
     4     3     4    1
     5     3    29    1
     6     3    33    1
     7     4     5    1
     8     5     6    1
     9     5     7    1
    10     5    35    1
    11     7     8    1
    12     8     9   ar
    13     8    13   ar
    14     9    10   ar
    15     9    36    1
    16    10    11   ar
    17    10    26    1
    18    11    12   ar
    19    11    14    1
    20    12    13   ar
    21    12    17    1
    22    13    37    1
    23    14    15    1
    24    14    25    2
    25    15    16    1
    26    15    38    1
    27    15    39    1
    28    16    17    1
    29    16    18    1
    30    16    40    1
    31    18    19   ar
    32    18    23   ar
    33    19    20   ar
    34    19    41    1
    35    20    21   ar
    36    20    42    1
    37    21    22   ar
    38    21    24    1
    39    22    23   ar
    40    22    43    1
    41    23    44    1
    42    24    45    1
    43    26    46    1
    44    27    47    1
    45    28    48    1
    46    29    49    1
    47    30    50    1
    48     1    31    1
    49     1    27    1
    50     2    32    1
    51     2    28    1
    52     4    34    1
    53     4    30    1
