@<TRIPOS>MOLECULE
*****
 50 53 0 0 0
SMALL
GASTEIGER

@<TRIPOS>ATOM
     1 C         -0.001327   -1.104831   1.884185 C.3        1 UNL1     0.1889
     2 C         -0.264089   -1.002973   0.35758 C.3        1 UNL1     0.1342
     3 C         -1.705235   -1.323287   -0.067819 C.3        1 UNL1     0.1174
     4 C         -2.348467   -2.415566   0.790257 C.3        1 UNL1     0.1456
     5 C         -2.124501   -2.191045   2.29684 C.3        1 UNL1     0.2326
     6 O         -0.728221   -2.110872   2.574041 O.3        1 UNL1     -0.3076
     7 O         -2.871535   -1.081644   2.828339 O.3        1 UNL1     -0.4605
     8 C         -3.273434   -1.19754   4.146889 C.ar        1 UNL1     0.1310
     9 C         -3.858436   -2.33235   4.718971 C.ar        1 UNL1     0.0226
     10 C         -4.216278   -2.357943   6.072188 C.ar        1 UNL1     0.1343
     11 C         -3.975719   -1.256618   6.892587 C.ar        1 UNL1     0.1007
     12 C         -3.429745   -0.103066   6.323363 C.ar        1 UNL1     0.1389
     13 C         -3.072456   -0.076655   4.962085 C.ar        1 UNL1     0.0229
     14 C         -4.256653   -1.259182   8.346967 C.2        1 UNL1     0.1740
     15 C         -3.732123   -0.079485   9.111645 C.3        1 UNL1     0.0520
     16 C         -3.948912   1.172953   8.273578 C.3        1 UNL1     0.1322
     17 O         -3.250398   1.073635   7.012909 O.3        1 UNL1     -0.4828
     18 C         -5.417337   1.587925   8.154204 C.ar        1 UNL1     -0.0067
     19 C         -5.950845   1.889096   6.884212 C.ar        1 UNL1     -0.0516
     20 C         -7.276434   2.317379   6.745113 C.ar        1 UNL1     -0.0198
     21 C         -8.074739   2.455258   7.866507 C.ar        1 UNL1     0.1169
     22 C         -7.588039   2.134214   9.12702 C.ar        1 UNL1     -0.0198
     23 C         -6.268084   1.688234   9.264412 C.ar        1 UNL1     -0.0516
     24 O         -9.348938   2.911068   7.696051 O.3        1 UNL1     -0.5068
     25 O         -4.809016   -2.190131   8.927239 O.2        1 UNL1     -0.2917
     26 O         -4.783951   -3.495155   6.568253 O.3        1 UNL1     -0.5058
     27 O         -0.070342   0.14377   2.554274 O.3        1 UNL1     -0.3648
     28 O         0.599316   -1.936765   -0.317157 O.3        1 UNL1     -0.3841
     29 O         -2.492452   -0.132206   -0.129041 O.3        1 UNL1     -0.3863
     30 O         -1.790173   -3.696086   0.423834 O.3        1 UNL1     -0.3829
     31 H         1.042208   -1.416701   2.001871 H        1 UNL1     0.0937
     32 H         0.0   0.0   0.0 H        1 UNL1     0.0671
     33 H         -1.673787   -1.705492   -1.097698 H        1 UNL1     0.0649
     34 H         -3.424117   -2.465143   0.587968 H        1 UNL1     0.0683
     35 H         -2.488842   -3.116932   2.7593 H        1 UNL1     0.1085
     36 H         -4.020105   -3.239941   4.147775 H        1 UNL1     0.0691
     37 H         -2.650078   0.834019   4.542843 H        1 UNL1     0.0691
     38 H         -2.666363   -0.251684   9.296116 H        1 UNL1     0.0385
     39 H         -4.24209   -0.023499   10.079415 H        1 UNL1     0.0385
     40 H         -3.454195   2.002311   8.796971 H        1 UNL1     0.0789
     41 H         -5.341913   1.797662   5.989509 H        1 UNL1     0.0623
     42 H         -7.672618   2.557982   5.761669 H        1 UNL1     0.0654
     43 H         -8.209165   2.224176   10.010208 H        1 UNL1     0.0654
     44 H         -5.924184   1.436173   10.262933 H        1 UNL1     0.0623
     45 H         -9.307497   3.796365   7.299505 H        1 UNL1     0.2921
     46 H         -4.259128   -3.818425   7.317565 H        1 UNL1     0.2922
     47 H         0.543637   0.773971   2.152109 H        1 UNL1     0.2126
     48 H         1.515779   -1.667113   -0.114389 H        1 UNL1     0.2101
     49 H         -2.199088   0.419459   -0.871602 H        1 UNL1     0.2100
     50 H         -2.060094   -3.890118   -0.49769 H        1 UNL1     0.2102
@<TRIPOS>BOND
     1     1     2    1
     2     1     6    1
     3     2     3    1
     4     3     4    1
     5     3    29    1
     6     3    33    1
     7     4     5    1
     8     5     6    1
     9     5     7    1
    10     5    35    1
    11     7     8    1
    12     8     9   ar
    13     8    13   ar
    14     9    10   ar
    15     9    36    1
    16    10    11   ar
    17    10    26    1
    18    11    12   ar
    19    11    14    1
    20    12    13   ar
    21    12    17    1
    22    13    37    1
    23    14    15    1
    24    14    25    2
    25    15    16    1
    26    15    38    1
    27    15    39    1
    28    16    17    1
    29    16    18    1
    30    16    40    1
    31    18    19   ar
    32    18    23   ar
    33    19    20   ar
    34    19    41    1
    35    20    21   ar
    36    20    42    1
    37    21    22   ar
    38    21    24    1
    39    22    23   ar
    40    22    43    1
    41    23    44    1
    42    24    45    1
    43    26    46    1
    44    27    47    1
    45    28    48    1
    46    29    49    1
    47    30    50    1
    48     1    31    1
    49     1    27    1
    50     2    32    1
    51     2    28    1
    52     4    34    1
    53     4    30    1
