@<TRIPOS>MOLECULE
*****
 50 53 0 0 0
SMALL
GASTEIGER

@<TRIPOS>ATOM
     1 C         -1.537186   -0.568255   1.443936 C.3        1 UNL1     0.1889
     2 C         -0.666567   0.492809   0.718602 C.3        1 UNL1     0.1342
     3 C         0.170928   1.381297   1.651156 C.3        1 UNL1     0.1174
     4 C         -0.536448   1.685885   2.974017 C.3        1 UNL1     0.1456
     5 C         -1.155019   0.430304   3.615305 C.3        1 UNL1     0.2326
     6 O         -2.064849   -0.182624   2.704593 O.3        1 UNL1     -0.3076
     7 O         -0.177347   -0.48574   4.140987 O.3        1 UNL1     -0.4605
     8 C         -0.562257   -1.209581   5.25518 C.ar        1 UNL1     0.1310
     9 C         -0.910263   -0.663913   6.495518 C.ar        1 UNL1     0.0226
     10 C         -1.304201   -1.481886   7.56118 C.ar        1 UNL1     0.1343
     11 C         -1.382659   -2.865105   7.405002 C.ar        1 UNL1     0.1007
     12 C         -0.998242   -3.424809   6.183634 C.ar        1 UNL1     0.1389
     13 C         -0.59964   -2.602324   5.113089 C.ar        1 UNL1     0.0229
     14 C         -1.872678   -3.769376   8.470989 C.2        1 UNL1     0.1740
     15 C         -2.10232   -5.193898   8.059226 C.3        1 UNL1     0.0520
     16 C         -0.970733   -5.615841   7.13217 C.3        1 UNL1     0.1322
     17 O         -0.933705   -4.779679   5.95466 O.3        1 UNL1     -0.4828
     18 C         0.377422   -5.776329   7.838885 C.ar        1 UNL1     -0.0067
     19 C         1.462508   -6.343997   7.139918 C.ar        1 UNL1     -0.0516
     20 C         2.695376   -6.548567   7.770909 C.ar        1 UNL1     -0.0198
     21 C         2.853338   -6.197287   9.099622 C.ar        1 UNL1     0.1169
     22 C         1.813545   -5.605432   9.80487 C.ar        1 UNL1     -0.0198
     23 C         0.586205   -5.383786   9.168816 C.ar        1 UNL1     -0.0516
     24 O         4.056755   -6.446303   9.691381 O.3        1 UNL1     -0.5068
     25 O         -2.157128   -3.387964   9.603287 O.2        1 UNL1     -0.2917
     26 O         -1.629727   -0.887151   8.745201 O.3        1 UNL1     -0.5058
     27 O         -0.935382   -1.851858   1.498538 O.3        1 UNL1     -0.3648
     28 O         -1.536152   1.360149   -0.032564 O.3        1 UNL1     -0.3841
     29 O         1.477516   0.832761   1.835729 O.3        1 UNL1     -0.3863
     30 O         -1.584461   2.651463   2.739459 O.3        1 UNL1     -0.3829
     31 H         -2.430204   -0.715158   0.82667 H        1 UNL1     0.0937
     32 H         0.0   0.0   0.0 H        1 UNL1     0.0671
     33 H         0.327562   2.34433   1.145436 H        1 UNL1     0.0649
     34 H         0.167935   2.142083   3.678381 H        1 UNL1     0.0683
     35 H         -1.752916   0.824965   4.446353 H        1 UNL1     0.1085
     36 H         -0.923567   0.407382   6.663655 H        1 UNL1     0.0691
     37 H         -0.304171   -3.0628   4.172795 H        1 UNL1     0.0691
     38 H         -3.069652   -5.238917   7.547591 H        1 UNL1     0.0385
     39 H         -2.159618   -5.821668   8.954994 H        1 UNL1     0.0385
     40 H         -1.219992   -6.615504   6.751298 H        1 UNL1     0.0789
     41 H         1.361217   -6.636628   6.098881 H        1 UNL1     0.0623
     42 H         3.520897   -6.998118   7.22462 H        1 UNL1     0.0654
     43 H         1.931058   -5.312689   10.841404 H        1 UNL1     0.0654
     44 H         -0.201002   -4.90957   9.746977 H        1 UNL1     0.0623
     45 H         4.520022   -7.122898   9.171458 H        1 UNL1     0.2921
     46 H         -2.442992   -1.284905   9.094203 H        1 UNL1     0.2922
     47 H         -0.381882   -1.928823   2.288205 H        1 UNL1     0.2126
     48 H         -1.204369   2.26944   0.097216 H        1 UNL1     0.2101
     49 H         1.483932   -0.100827   1.570842 H        1 UNL1     0.2100
     50 H         -1.305815   3.224002   1.994967 H        1 UNL1     0.2102
@<TRIPOS>BOND
     1     1     2    1
     2     1     6    1
     3     2     3    1
     4     3     4    1
     5     3    29    1
     6     3    33    1
     7     4     5    1
     8     5     6    1
     9     5     7    1
    10     5    35    1
    11     7     8    1
    12     8     9   ar
    13     8    13   ar
    14     9    10   ar
    15     9    36    1
    16    10    11   ar
    17    10    26    1
    18    11    12   ar
    19    11    14    1
    20    12    13   ar
    21    12    17    1
    22    13    37    1
    23    14    15    1
    24    14    25    2
    25    15    16    1
    26    15    38    1
    27    15    39    1
    28    16    17    1
    29    16    18    1
    30    16    40    1
    31    18    19   ar
    32    18    23   ar
    33    19    20   ar
    34    19    41    1
    35    20    21   ar
    36    20    42    1
    37    21    22   ar
    38    21    24    1
    39    22    23   ar
    40    22    43    1
    41    23    44    1
    42    24    45    1
    43    26    46    1
    44    27    47    1
    45    28    48    1
    46    29    49    1
    47    30    50    1
    48     1    31    1
    49     1    27    1
    50     2    32    1
    51     2    28    1
    52     4    34    1
    53     4    30    1
