@<TRIPOS>MOLECULE
*****
 50 53 0 0 0
SMALL
GASTEIGER

@<TRIPOS>ATOM
     1 C         -0.350796   -1.339374   1.689327 C.3        1 UNL1     0.1889
     2 C         -0.470815   -0.973395   0.185467 C.3        1 UNL1     0.1342
     3 C         -1.908741   -0.945633   -0.354963 C.3        1 UNL1     0.1174
     4 C         -2.806417   -2.003392   0.291907 C.3        1 UNL1     0.1456
     5 C         -2.662912   -2.042166   1.824313 C.3        1 UNL1     0.2326
     6 O         -1.301527   -2.273404   2.17932 O.3        1 UNL1     -0.3076
     7 O         -3.232515   -0.89605   2.482561 O.3        1 UNL1     -0.4605
     8 C         -3.7608   -1.12024   3.741204 C.ar        1 UNL1     0.1310
     9 C         -4.594382   -2.187728   4.091789 C.ar        1 UNL1     0.0226
     10 C         -5.065668   -2.338113   5.401436 C.ar        1 UNL1     0.1343
     11 C         -4.695108   -1.437006   6.398699 C.ar        1 UNL1     0.1007
     12 C         -3.896468   -0.344047   6.051716 C.ar        1 UNL1     0.1389
     13 C         -3.424877   -0.19159   4.734222 C.ar        1 UNL1     0.0229
     14 C         -5.095524   -1.59495   7.816047 C.2        1 UNL1     0.1740
     15 C         -4.427634   -0.665927   8.786814 C.3        1 UNL1     0.0520
     16 C         -4.333894   0.712717   8.147666 C.3        1 UNL1     0.1322
     17 O         -3.560491   0.661221   6.928541 O.3        1 UNL1     -0.4828
     18 C         -5.683213   1.422672   8.013398 C.ar        1 UNL1     -0.0067
     19 C         -6.032366   2.01975   6.784657 C.ar        1 UNL1     -0.0516
     20 C         -7.237641   2.717529   6.641909 C.ar        1 UNL1     -0.0198
     21 C         -8.096991   2.831374   7.720048 C.ar        1 UNL1     0.1169
     22 C         -7.796428   2.225795   8.933215 C.ar        1 UNL1     -0.0198
     23 C         -6.599771   1.512274   9.070889 C.ar        1 UNL1     -0.0516
     24 O         -9.244009   3.550602   7.554326 O.3        1 UNL1     -0.5068
     25 O         -5.859801   -2.472443   8.208949 O.2        1 UNL1     -0.2917
     26 O         -5.876207   -3.400327   5.677686 O.3        1 UNL1     -0.5058
     27 O         -0.24122   -0.208761   2.539324 O.3        1 UNL1     -0.3648
     28 O         0.256218   -1.951207   -0.581353 O.3        1 UNL1     -0.3841
     29 O         -2.45661   0.371535   -0.27106 O.3        1 UNL1     -0.3863
     30 O         -2.466031   -3.302563   -0.23911 O.3        1 UNL1     -0.3829
     31 H         0.605333   -1.860472   1.809127 H        1 UNL1     0.0937
     32 H         0.0   0.0   0.0 H        1 UNL1     0.0671
     33 H         -1.86801   -1.176849   -1.428555 H        1 UNL1     0.0649
     34 H         -3.853821   -1.815017   0.031407 H        1 UNL1     0.0683
     35 H         -3.225964   -2.93621   2.12018 H        1 UNL1     0.1085
     36 H         -4.872979   -2.952769   3.375397 H        1 UNL1     0.0691
     37 H         -2.805435   0.668585   4.489512 H        1 UNL1     0.0691
     38 H         -3.432644   -1.070352   9.001199 H        1 UNL1     0.0385
     39 H         -4.999435   -0.651225   9.720948 H        1 UNL1     0.0385
     40 H         -3.739861   1.342998   8.823232 H        1 UNL1     0.0789
     41 H         -5.370704   1.95241   5.925984 H        1 UNL1     0.0623
     42 H         -7.490069   3.183691   5.692707 H        1 UNL1     0.0654
     43 H         -8.469229   2.295933   9.779578 H        1 UNL1     0.0654
     44 H         -6.402008   1.042957   10.029782 H        1 UNL1     0.0623
     45 H         -9.00344   4.468973   7.350762 H        1 UNL1     0.2921
     46 H         -5.488224   -3.925237   6.395566 H        1 UNL1     0.2922
     47 H         0.494631   0.352243   2.257086 H        1 UNL1     0.2126
     48 H         1.194874   -1.865508   -0.32579 H        1 UNL1     0.2101
     49 H         -2.015886   0.953616   -0.910386 H        1 UNL1     0.2100
     50 H         -2.69972   -3.310107   -1.190448 H        1 UNL1     0.2102
@<TRIPOS>BOND
     1     1     2    1
     2     1     6    1
     3     2     3    1
     4     3     4    1
     5     3    29    1
     6     3    33    1
     7     4     5    1
     8     5     6    1
     9     5     7    1
    10     5    35    1
    11     7     8    1
    12     8     9   ar
    13     8    13   ar
    14     9    10   ar
    15     9    36    1
    16    10    11   ar
    17    10    26    1
    18    11    12   ar
    19    11    14    1
    20    12    13   ar
    21    12    17    1
    22    13    37    1
    23    14    15    1
    24    14    25    2
    25    15    16    1
    26    15    38    1
    27    15    39    1
    28    16    17    1
    29    16    18    1
    30    16    40    1
    31    18    19   ar
    32    18    23   ar
    33    19    20   ar
    34    19    41    1
    35    20    21   ar
    36    20    42    1
    37    21    22   ar
    38    21    24    1
    39    22    23   ar
    40    22    43    1
    41    23    44    1
    42    24    45    1
    43    26    46    1
    44    27    47    1
    45    28    48    1
    46    29    49    1
    47    30    50    1
    48     1    31    1
    49     1    27    1
    50     2    32    1
    51     2    28    1
    52     4    34    1
    53     4    30    1
