@<TRIPOS>MOLECULE
*****
 50 53 0 0 0
SMALL
GASTEIGER

@<TRIPOS>ATOM
     1 C         -0.765335   -0.810576   -1.878306 C.3        1 UNL1     0.1889
     2 C         0.391775   -0.293604   -0.981769 C.3        1 UNL1     0.1342
     3 C         1.187645   0.879135   -1.574844 C.3        1 UNL1     0.1174
     4 C         1.32261   0.795143   -3.097292 C.3        1 UNL1     0.1456
     5 C         -0.01216   0.467132   -3.79095 C.3        1 UNL1     0.2326
     6 O         -0.538543   -0.755026   -3.278975 O.3        1 UNL1     -0.3076
     7 O         -0.958837   1.550529   -3.753886 O.3        1 UNL1     -0.4605
     8 C         -1.213729   2.174435   -4.9619 C.ar        1 UNL1     0.1310
     9 C         -1.549292   1.524691   -6.154599 C.ar        1 UNL1     0.0226
     10 C         -1.806462   2.248085   -7.325269 C.ar        1 UNL1     0.1343
     11 C         -1.757541   3.641444   -7.325733 C.ar        1 UNL1     0.1007
     12 C         -1.383449   4.299586   -6.151132 C.ar        1 UNL1     0.1389
     13 C         -1.122333   3.571861   -4.974839 C.ar        1 UNL1     0.0229
     14 C         -2.101774   4.458933   -8.512059 C.2        1 UNL1     0.1740
     15 C         -2.212183   5.93613   -8.272791 C.3        1 UNL1     0.0520
     16 C         -1.093826   6.356244   -7.329002 C.3        1 UNL1     0.1322
     17 O         -1.198897   5.660176   -6.067448 O.3        1 UNL1     -0.4828
     18 C         0.297981   6.311359   -7.964284 C.ar        1 UNL1     -0.0067
     19 C         0.671302   5.191736   -8.735835 C.ar        1 UNL1     -0.0516
     20 C         1.952854   5.097265   -9.291407 C.ar        1 UNL1     -0.0198
     21 C         2.870538   6.110051   -9.077051 C.ar        1 UNL1     0.1169
     22 C         2.521635   7.240613   -8.349772 C.ar        1 UNL1     -0.0198
     23 C         1.234165   7.34384   -7.809567 C.ar        1 UNL1     -0.0516
     24 O         4.121111   5.965702   -9.602056 O.3        1 UNL1     -0.5068
     25 O         -2.363683   3.978226   -9.611518 O.2        1 UNL1     -0.2917
     26 O         -2.127352   1.554183   -8.455364 O.3        1 UNL1     -0.5058
     27 O         -2.032225   -0.27457   -1.531211 O.3        1 UNL1     -0.3648
     28 O         1.318344   -1.373947   -0.764895 O.3        1 UNL1     -0.3841
     29 O         0.652638   2.129033   -1.134781 O.3        1 UNL1     -0.3863
     30 O         2.283626   -0.229648   -3.431868 O.3        1 UNL1     -0.3829
     31 H         -0.86193   -1.88304   -1.67689 H        1 UNL1     0.0937
     32 H         0.0   0.0   0.0 H        1 UNL1     0.0671
     33 H         2.205494   0.836129   -1.162709 H        1 UNL1     0.0649
     34 H         1.712011   1.740555   -3.490945 H        1 UNL1     0.0683
     35 H         0.270933   0.280187   -4.8344 H        1 UNL1     0.1085
     36 H         -1.658382   0.446908   -6.205626 H        1 UNL1     0.0691
     37 H         -0.831925   4.107848   -4.073798 H        1 UNL1     0.0691
     38 H         -3.195447   6.127307   -7.829882 H        1 UNL1     0.0385
     39 H         -2.162016   6.460071   -9.233388 H        1 UNL1     0.0385
     40 H         -1.263585   7.411404   -7.075349 H        1 UNL1     0.0789
     41 H         -0.027831   4.379221   -8.911 H        1 UNL1     0.0623
     42 H         2.232598   4.223335   -9.874503 H        1 UNL1     0.0654
     43 H         3.227639   8.046499   -8.188473 H        1 UNL1     0.0654
     44 H         0.99241   8.245894   -7.255764 H        1 UNL1     0.0623
     45 H         4.492046   5.126478   -9.284523 H        1 UNL1     0.2921
     46 H         -1.716509   1.980214   -9.224206 H        1 UNL1     0.2922
     47 H         -2.181943   -0.358735   -0.579181 H        1 UNL1     0.2126
     48 H         0.812512   -2.202266   -0.873314 H        1 UNL1     0.2101
     49 H         -0.248086   2.241641   -1.478015 H        1 UNL1     0.2100
     50 H         2.898027   0.13962   -4.0996 H        1 UNL1     0.2102
@<TRIPOS>BOND
     1     1     2    1
     2     1     6    1
     3     2     3    1
     4     3     4    1
     5     3    29    1
     6     3    33    1
     7     4     5    1
     8     5     6    1
     9     5     7    1
    10     5    35    1
    11     7     8    1
    12     8     9   ar
    13     8    13   ar
    14     9    10   ar
    15     9    36    1
    16    10    11   ar
    17    10    26    1
    18    11    12   ar
    19    11    14    1
    20    12    13   ar
    21    12    17    1
    22    13    37    1
    23    14    15    1
    24    14    25    2
    25    15    16    1
    26    15    38    1
    27    15    39    1
    28    16    17    1
    29    16    18    1
    30    16    40    1
    31    18    19   ar
    32    18    23   ar
    33    19    20   ar
    34    19    41    1
    35    20    21   ar
    36    20    42    1
    37    21    22   ar
    38    21    24    1
    39    22    23   ar
    40    22    43    1
    41    23    44    1
    42    24    45    1
    43    26    46    1
    44    27    47    1
    45    28    48    1
    46    29    49    1
    47    30    50    1
    48     1    31    1
    49     1    27    1
    50     2    32    1
    51     2    28    1
    52     4    34    1
    53     4    30    1
