@<TRIPOS>MOLECULE
*****
 50 53 0 0 0
SMALL
GASTEIGER

@<TRIPOS>ATOM
     1 C         -0.335559   -1.330107   1.699711 C.3        1 UNL1     0.1889
     2 C         -0.464093   -0.974966   0.193958 C.3        1 UNL1     0.1342
     3 C         -1.904408   -0.959559   -0.340571 C.3        1 UNL1     0.1174
     4 C         -2.792907   -2.018379   0.317143 C.3        1 UNL1     0.1456
     5 C         -2.642763   -2.045994   1.849154 C.3        1 UNL1     0.2326
     6 O         -1.278522   -2.266579   2.199949 O.3        1 UNL1     -0.3076
     7 O         -3.216585   -0.898963   2.502122 O.3        1 UNL1     -0.4605
     8 C         -3.728043   -1.115416   3.769042 C.ar        1 UNL1     0.1310
     9 C         -4.54647   -2.187653   4.140234 C.ar        1 UNL1     0.0226
     10 C         -5.001112   -2.329196   5.456732 C.ar        1 UNL1     0.1343
     11 C         -4.628459   -1.414014   6.440304 C.ar        1 UNL1     0.1007
     12 C         -3.845192   -0.316628   6.072856 C.ar        1 UNL1     0.1389
     13 C         -3.390356   -0.173091   4.748487 C.ar        1 UNL1     0.0229
     14 C         -5.010925   -1.561269   7.863747 C.2        1 UNL1     0.1740
     15 C         -4.341571   -0.615413   8.817094 C.3        1 UNL1     0.0520
     16 C         -4.269426   0.757385   8.162741 C.3        1 UNL1     0.1322
     17 O         -3.509577   0.701097   6.935333 O.3        1 UNL1     -0.4828
     18 C         -5.627461   1.452084   8.036813 C.ar        1 UNL1     -0.0067
     19 C         -6.003528   2.018872   6.801685 C.ar        1 UNL1     -0.0516
     20 C         -7.217582   2.702505   6.665008 C.ar        1 UNL1     -0.0198
     21 C         -8.059056   2.832289   7.755378 C.ar        1 UNL1     0.1169
     22 C         -7.731761   2.256223   8.975979 C.ar        1 UNL1     -0.0198
     23 C         -6.526264   1.556664   9.108079 C.ar        1 UNL1     -0.0516
     24 O         -9.215464   3.537381   7.594242 O.3        1 UNL1     -0.5068
     25 O         -5.761533   -2.442383   8.274491 O.2        1 UNL1     -0.2917
     26 O         -5.797406   -3.396699   5.753277 O.3        1 UNL1     -0.5058
     27 O         -0.229325   -0.19317   2.541659 O.3        1 UNL1     -0.3648
     28 O         0.265675   -1.953475   -0.569368 O.3        1 UNL1     -0.3841
     29 O         -2.459941   0.354794   -0.263166 O.3        1 UNL1     -0.3863
     30 O         -2.446831   -3.318997   -0.206607 O.3        1 UNL1     -0.3829
     31 H         0.624221   -1.844578   1.818957 H        1 UNL1     0.0937
     32 H         0.0   0.0   0.0 H        1 UNL1     0.0671
     33 H         -1.866757   -1.197726   -1.412755 H        1 UNL1     0.0649
     34 H         -3.84252   -1.838116   0.059812 H        1 UNL1     0.0683
     35 H         -3.199113   -2.941432   2.153367 H        1 UNL1     0.1085
     36 H         -4.825352   -2.962919   3.435033 H        1 UNL1     0.0691
     37 H         -2.782686   0.690771   4.487773 H        1 UNL1     0.0691
     38 H         -3.340059   -1.007399   9.02409 H        1 UNL1     0.0385
     39 H         -4.902733   -0.596824   9.757589 H        1 UNL1     0.0385
     40 H         -3.674222   1.400703   8.824854 H        1 UNL1     0.0789
     41 H         -5.356318   1.938628   5.933164 H        1 UNL1     0.0623
     42 H         -7.490851   3.145421   5.710461 H        1 UNL1     0.0654
     43 H         -8.390349   2.338896   9.83233 H        1 UNL1     0.0654
     44 H         -6.307452   1.110316   10.073345 H        1 UNL1     0.0623
     45 H         -8.98768   4.445325   7.336425 H        1 UNL1     0.2921
     46 H         -5.395114   -3.91089   6.471037 H        1 UNL1     0.2922
     47 H         0.514743   0.359822   2.265212 H        1 UNL1     0.2126
     48 H         1.19843   -1.889427   -0.287236 H        1 UNL1     0.2101
     49 H         -2.019605   0.937356   -0.902322 H        1 UNL1     0.2100
     50 H         -2.679222   -3.332423   -1.158198 H        1 UNL1     0.2102
@<TRIPOS>BOND
     1     1     2    1
     2     1     6    1
     3     2     3    1
     4     3     4    1
     5     3    29    1
     6     3    33    1
     7     4     5    1
     8     5     6    1
     9     5     7    1
    10     5    35    1
    11     7     8    1
    12     8     9   ar
    13     8    13   ar
    14     9    10   ar
    15     9    36    1
    16    10    11   ar
    17    10    26    1
    18    11    12   ar
    19    11    14    1
    20    12    13   ar
    21    12    17    1
    22    13    37    1
    23    14    15    1
    24    14    25    2
    25    15    16    1
    26    15    38    1
    27    15    39    1
    28    16    17    1
    29    16    18    1
    30    16    40    1
    31    18    19   ar
    32    18    23   ar
    33    19    20   ar
    34    19    41    1
    35    20    21   ar
    36    20    42    1
    37    21    22   ar
    38    21    24    1
    39    22    23   ar
    40    22    43    1
    41    23    44    1
    42    24    45    1
    43    26    46    1
    44    27    47    1
    45    28    48    1
    46    29    49    1
    47    30    50    1
    48     1    31    1
    49     1    27    1
    50     2    32    1
    51     2    28    1
    52     4    34    1
    53     4    30    1
