@<TRIPOS>MOLECULE
*****
 50 53 0 0 0
SMALL
GASTEIGER

@<TRIPOS>ATOM
     1 C         -1.534602   -0.579249   1.442314 C.3        1 UNL1     0.1889
     2 C         -0.669293   0.487834   0.719462 C.3        1 UNL1     0.1342
     3 C         0.163354   1.378665   1.654119 C.3        1 UNL1     0.1174
     4 C         -0.545931   1.676792   2.97743 C.3        1 UNL1     0.1456
     5 C         -1.158167   0.416675   3.615894 C.3        1 UNL1     0.2326
     6 O         -2.064579   -0.199021   2.703641 O.3        1 UNL1     -0.3076
     7 O         -0.175908   -0.495412   4.139902 O.3        1 UNL1     -0.4605
     8 C         -0.641841   -1.43634   5.040507 C.ar        1 UNL1     0.1310
     9 C         0.135911   -2.421826   5.657935 C.ar        1 UNL1     0.0226
     10 C         -0.426779   -3.320801   6.571788 C.ar        1 UNL1     0.1343
     11 C         -1.77731   -3.240812   6.908699 C.ar        1 UNL1     0.1007
     12 C         -2.572852   -2.287259   6.267894 C.ar        1 UNL1     0.1389
     13 C         -2.007388   -1.385165   5.347075 C.ar        1 UNL1     0.0229
     14 C         -2.40539   -4.11061   7.930032 C.2        1 UNL1     0.1740
     15 C         -3.804622   -3.740784   8.326174 C.3        1 UNL1     0.0520
     16 C         -4.565843   -3.325571   7.074736 C.3        1 UNL1     0.1322
     17 O         -3.933807   -2.190405   6.443071 O.3        1 UNL1     -0.4828
     18 C         -4.875227   -4.487573   6.127764 C.ar        1 UNL1     -0.0067
     19 C         -5.813187   -4.305049   5.090879 C.ar        1 UNL1     -0.0516
     20 C         -6.154279   -5.360588   4.236797 C.ar        1 UNL1     -0.0198
     21 C         -5.571233   -6.602635   4.413438 C.ar        1 UNL1     0.1169
     22 C         -4.619344   -6.804472   5.404401 C.ar        1 UNL1     -0.0198
     23 C         -4.264397   -5.744187   6.246936 C.ar        1 UNL1     -0.0516
     24 O         -5.956205   -7.616641   3.586402 O.3        1 UNL1     -0.5068
     25 O         -1.815024   -5.030386   8.490358 O.2        1 UNL1     -0.2917
     26 O         0.386062   -4.258995   7.138062 O.3        1 UNL1     -0.5058
     27 O         -0.926183   -1.859836   1.494365 O.3        1 UNL1     -0.3648
     28 O         -1.543156   1.352254   -0.030103 O.3        1 UNL1     -0.3841
     29 O         1.472713   0.836503   1.837885 O.3        1 UNL1     -0.3863
     30 O         -1.598862   2.637433   2.74463 O.3        1 UNL1     -0.3829
     31 H         -2.426688   -0.729461   0.824498 H        1 UNL1     0.0937
     32 H         0.0   0.0   0.0 H        1 UNL1     0.0671
     33 H         0.315138   2.343564   1.15048 H        1 UNL1     0.0649
     34 H         0.155901   2.135135   3.682948 H        1 UNL1     0.0683
     35 H         -1.758313   0.80648   4.447613 H        1 UNL1     0.1085
     36 H         1.202931   -2.500302   5.480644 H        1 UNL1     0.0691
     37 H         -2.648468   -0.652878   4.861002 H        1 UNL1     0.0691
     38 H         -3.738768   -2.913652   9.041046 H        1 UNL1     0.0385
     39 H         -4.271795   -4.593065   8.831293 H        1 UNL1     0.0385
     40 H         -5.544419   -2.9484   7.40131 H        1 UNL1     0.0789
     41 H         -6.291674   -3.342192   4.937234 H        1 UNL1     0.0623
     42 H         -6.887771   -5.210459   3.448467 H        1 UNL1     0.0654
     43 H         -4.145438   -7.769049   5.541937 H        1 UNL1     0.0654
     44 H         -3.509418   -5.934675   7.003617 H        1 UNL1     0.0623
     45 H         -6.195229   -7.236357   2.725607 H        1 UNL1     0.2921
     46 H         0.864343   -3.864594   7.884458 H        1 UNL1     0.2922
     47 H         -0.388113   -1.942621   2.294045 H        1 UNL1     0.2126
     48 H         -1.723354   0.90123   -0.877357 H        1 UNL1     0.2101
     49 H         1.484025   -0.096477   1.571027 H        1 UNL1     0.2100
     50 H         -1.322987   3.212979   2.001427 H        1 UNL1     0.2102
@<TRIPOS>BOND
     1     1     2    1
     2     1     6    1
     3     2     3    1
     4     3     4    1
     5     3    29    1
     6     3    33    1
     7     4     5    1
     8     5     6    1
     9     5     7    1
    10     5    35    1
    11     7     8    1
    12     8     9   ar
    13     8    13   ar
    14     9    10   ar
    15     9    36    1
    16    10    11   ar
    17    10    26    1
    18    11    12   ar
    19    11    14    1
    20    12    13   ar
    21    12    17    1
    22    13    37    1
    23    14    15    1
    24    14    25    2
    25    15    16    1
    26    15    38    1
    27    15    39    1
    28    16    17    1
    29    16    18    1
    30    16    40    1
    31    18    19   ar
    32    18    23   ar
    33    19    20   ar
    34    19    41    1
    35    20    21   ar
    36    20    42    1
    37    21    22   ar
    38    21    24    1
    39    22    23   ar
    40    22    43    1
    41    23    44    1
    42    24    45    1
    43    26    46    1
    44    27    47    1
    45    28    48    1
    46    29    49    1
    47    30    50    1
    48     1    31    1
    49     1    27    1
    50     2    32    1
    51     2    28    1
    52     4    34    1
    53     4    30    1
