@<TRIPOS>MOLECULE
*****
 50 53 0 0 0
SMALL
GASTEIGER

@<TRIPOS>ATOM
     1 C         -0.955585   -1.458679   1.315263 C.3        1 UNL1     0.1889
     2 C         -1.000504   -0.205185   0.400564 C.3        1 UNL1     0.1342
     3 C         -1.538982   1.064178   1.078227 C.3        1 UNL1     0.1174
     4 C         -2.641686   0.770127   2.098372 C.3        1 UNL1     0.1456
     5 C         -2.280728   -0.394466   3.038476 C.3        1 UNL1     0.2326
     6 O         -1.996334   -1.564844   2.275453 O.3        1 UNL1     -0.3076
     7 O         -1.24448   -0.068889   3.982674 O.3        1 UNL1     -0.4605
     8 C         -0.834904   -1.097557   4.811901 C.ar        1 UNL1     0.1310
     9 C         -1.312136   -2.411976   4.768862 C.ar        1 UNL1     0.0226
     10 C         -0.820796   -3.389303   5.642544 C.ar        1 UNL1     0.1343
     11 C         0.177804   -3.081255   6.565445 C.ar        1 UNL1     0.1007
     12 C         0.632999   -1.762485   6.645606 C.ar        1 UNL1     0.1389
     13 C         0.136908   -0.779361   5.768798 C.ar        1 UNL1     0.0229
     14 C         0.792392   -4.093769   7.454968 C.2        1 UNL1     0.1740
     15 C         1.999442   -3.637968   8.221013 C.3        1 UNL1     0.0520
     16 C         1.754324   -2.21523   8.704429 C.3        1 UNL1     0.1322
     17 O         1.534511   -1.325042   7.588043 O.3        1 UNL1     -0.4828
     18 C         0.704083   -2.113541   9.813202 C.ar        1 UNL1     -0.0067
     19 C         0.992993   -2.635653   11.090755 C.ar        1 UNL1     -0.0516
     20 C         0.03763   -2.601582   12.113536 C.ar        1 UNL1     -0.0198
     21 C         -1.210053   -2.055956   11.869799 C.ar        1 UNL1     0.1169
     22 C         -1.512785   -1.503725   10.631965 C.ar        1 UNL1     -0.0198
     23 C         -0.551245   -1.521027   9.614518 C.ar        1 UNL1     -0.0516
     24 O         -2.127701   -2.074498   12.878748 O.3        1 UNL1     -0.5068
     25 O         0.409149   -5.258866   7.519453 O.2        1 UNL1     -0.2917
     26 O         -1.328947   -4.652145   5.549823 O.3        1 UNL1     -0.5058
     27 O         0.318168   -1.689557   1.895811 O.3        1 UNL1     -0.3648
     28 O         -1.858134   -0.489043   -0.720418 O.3        1 UNL1     -0.3841
     29 O         -0.470331   1.838689   1.626178 O.3        1 UNL1     -0.3863
     30 O         -3.860119   0.439796   1.39695 O.3        1 UNL1     -0.3829
     31 H         -1.117054   -2.325892   0.665688 H        1 UNL1     0.0937
     32 H         0.0   0.0   0.0 H        1 UNL1     0.0671
     33 H         -1.987373   1.695959   0.298793 H        1 UNL1     0.0649
     34 H         -2.84791   1.665765   2.694782 H        1 UNL1     0.0683
     35 H         -3.210703   -0.589547   3.587081 H        1 UNL1     0.1085
     36 H         -2.047585   -2.727915   4.037141 H        1 UNL1     0.0691
     37 H         0.506875   0.240269   5.852303 H        1 UNL1     0.0691
     38 H         2.858272   -3.682204   7.542794 H        1 UNL1     0.0385
     39 H         2.181681   -4.331098   9.049348 H        1 UNL1     0.0385
     40 H         2.690355   -1.861501   9.157465 H        1 UNL1     0.0789
     41 H         1.961829   -3.077542   11.30463 H        1 UNL1     0.0623
     42 H         0.268347   -3.018158   13.090903 H        1 UNL1     0.0654
     43 H         -2.481549   -1.060377   10.434863 H        1 UNL1     0.0654
     44 H         -0.818232   -1.071218   8.66308 H        1 UNL1     0.0623
     45 H         -2.231038   -2.99088   13.182528 H        1 UNL1     0.2921
     46 H         -0.760252   -5.266524   6.040268 H        1 UNL1     0.2922
     47 H         1.007051   -1.651561   1.217684 H        1 UNL1     0.2126
     48 H         -1.834696   -1.456363   -0.852611 H        1 UNL1     0.2101
     49 H         -0.726797   2.186776   2.495002 H        1 UNL1     0.2100
     50 H         -4.181133   1.251204   0.951665 H        1 UNL1     0.2102
@<TRIPOS>BOND
     1     1     2    1
     2     1     6    1
     3     2     3    1
     4     3     4    1
     5     3    29    1
     6     3    33    1
     7     4     5    1
     8     5     6    1
     9     5     7    1
    10     5    35    1
    11     7     8    1
    12     8     9   ar
    13     8    13   ar
    14     9    10   ar
    15     9    36    1
    16    10    11   ar
    17    10    26    1
    18    11    12   ar
    19    11    14    1
    20    12    13   ar
    21    12    17    1
    22    13    37    1
    23    14    15    1
    24    14    25    2
    25    15    16    1
    26    15    38    1
    27    15    39    1
    28    16    17    1
    29    16    18    1
    30    16    40    1
    31    18    19   ar
    32    18    23   ar
    33    19    20   ar
    34    19    41    1
    35    20    21   ar
    36    20    42    1
    37    21    22   ar
    38    21    24    1
    39    22    23   ar
    40    22    43    1
    41    23    44    1
    42    24    45    1
    43    26    46    1
    44    27    47    1
    45    28    48    1
    46    29    49    1
    47    30    50    1
    48     1    31    1
    49     1    27    1
    50     2    32    1
    51     2    28    1
    52     4    34    1
    53     4    30    1
