@<TRIPOS>MOLECULE
*****
 50 53 0 0 0
SMALL
GASTEIGER

@<TRIPOS>ATOM
     1 C         -0.263438   -1.675051   -1.376811 C.3        1 UNL1     0.1889
     2 C         0.07434   -1.094313   0.022685 C.3        1 UNL1     0.1342
     3 C         1.455658   -1.491588   0.565455 C.3        1 UNL1     0.1174
     4 C         1.867788   -2.908737   0.15931 C.3        1 UNL1     0.1456
     5 C         1.624727   -3.18869   -1.334983 C.3        1 UNL1     0.2326
     6 O         0.252577   -2.968647   -1.653817 O.3        1 UNL1     -0.3076
     7 O         2.528063   -2.482508   -2.204817 O.3        1 UNL1     -0.4605
     8 C         2.02365   -1.344141   -2.807491 C.ar        1 UNL1     0.1310
     9 C         0.892396   -0.637341   -2.385593 C.ar        1 UNL1     0.0226
     10 C         0.469668   0.517724   -3.054194 C.ar        1 UNL1     0.1343
     11 C         1.182461   1.007905   -4.147578 C.ar        1 UNL1     0.1007
     12 C         2.289995   0.287863   -4.60331 C.ar        1 UNL1     0.1389
     13 C         2.713303   -0.874989   -3.932478 C.ar        1 UNL1     0.0229
     14 C         0.829316   2.269314   -4.839163 C.2        1 UNL1     0.1740
     15 C         1.828834   2.760147   -5.844944 C.3        1 UNL1     0.0520
     16 C         2.359199   1.562547   -6.621104 C.3        1 UNL1     0.1322
     17 O         2.999936   0.619437   -5.733934 O.3        1 UNL1     -0.4828
     18 C         1.333782   0.942091   -7.573091 C.ar        1 UNL1     -0.0067
     19 C         -0.014547   0.846298   -7.171785 C.ar        1 UNL1     -0.0516
     20 C         -0.968874   0.241671   -7.998615 C.ar        1 UNL1     -0.0198
     21 C         -0.586962   -0.276431   -9.223173 C.ar        1 UNL1     0.1169
     22 C         0.726693   -0.167374   -9.660501 C.ar        1 UNL1     -0.0198
     23 C         1.677545   0.453667   -8.841816 C.ar        1 UNL1     -0.0516
     24 O         -1.536487   -0.891769   -9.984857 O.3        1 UNL1     -0.5068
     25 O         -0.168987   2.931843   -4.569108 O.2        1 UNL1     -0.2917
     26 O         -0.642192   1.160045   -2.592916 O.3        1 UNL1     -0.5058
     27 O         -0.009447   -0.771076   -2.440345 O.3        1 UNL1     -0.3648
     28 O         -0.9078   -1.568558   0.962472 O.3        1 UNL1     -0.3841
     29 O         2.436454   -0.510371   0.22284 O.3        1 UNL1     -0.3863
     30 O         1.114383   -3.862932   0.938785 O.3        1 UNL1     -0.3829
     31 H         -1.348784   -1.821742   -1.400987 H        1 UNL1     0.0937
     32 H         0.0   0.0   0.0 H        1 UNL1     0.0671
     33 H         1.401083   -1.478733   1.662987 H        1 UNL1     0.0649
     34 H         2.926473   -3.070957   0.390116 H        1 UNL1     0.0683
     35 H         1.806682   -4.266053   -1.435278 H        1 UNL1     0.1085
     36 H         0.328   -0.935364   -1.508803 H        1 UNL1     0.0691
     37 H         3.577958   -1.418053   -4.307907 H        1 UNL1     0.0691
     38 H         2.632426   3.262036   -5.295513 H        1 UNL1     0.0385
     39 H         1.348802   3.497077   -6.497846 H        1 UNL1     0.0385
     40 H         3.170211   1.927862   -7.26556 H        1 UNL1     0.0789
     41 H         -0.337812   1.237093   -6.211353 H        1 UNL1     0.0623
     42 H         -2.003137   0.163274   -7.672785 H        1 UNL1     0.0654
     43 H         1.033535   -0.556251   -10.624105 H        1 UNL1     0.0654
     44 H         2.692457   0.530836   -9.219763 H        1 UNL1     0.0623
     45 H         -1.784689   -0.293373   -10.708068 H        1 UNL1     0.2921
     46 H         -1.365438   1.053437   -3.230852 H        1 UNL1     0.2922
     47 H         -0.497293   -1.039325   -3.231489 H        1 UNL1     0.2126
     48 H         -0.812418   -2.539735   1.000532 H        1 UNL1     0.2101
     49 H         3.282357   -0.727521   0.646028 H        1 UNL1     0.2100
     50 H         0.300097   -3.418793   1.254049 H        1 UNL1     0.2102
@<TRIPOS>BOND
     1     1     2    1
     2     1     6    1
     3     2     3    1
     4     3     4    1
     5     3    29    1
     6     3    33    1
     7     4     5    1
     8     5     6    1
     9     5     7    1
    10     5    35    1
    11     7     8    1
    12     8     9   ar
    13     8    13   ar
    14     9    10   ar
    15     9    36    1
    16    10    11   ar
    17    10    26    1
    18    11    12   ar
    19    11    14    1
    20    12    13   ar
    21    12    17    1
    22    13    37    1
    23    14    15    1
    24    14    25    2
    25    15    16    1
    26    15    38    1
    27    15    39    1
    28    16    17    1
    29    16    18    1
    30    16    40    1
    31    18    19   ar
    32    18    23   ar
    33    19    20   ar
    34    19    41    1
    35    20    21   ar
    36    20    42    1
    37    21    22   ar
    38    21    24    1
    39    22    23   ar
    40    22    43    1
    41    23    44    1
    42    24    45    1
    43    26    46    1
    44    27    47    1
    45    28    48    1
    46    29    49    1
    47    30    50    1
    48     1    31    1
    49     1    27    1
    50     2    32    1
    51     2    28    1
    52     4    34    1
    53     4    30    1
