@<TRIPOS>MOLECULE
*****
 50 53 0 0 0
SMALL
GASTEIGER

@<TRIPOS>ATOM
     1 C         1.045071   0.136319   1.913125 C.3        1 UNL1     0.1889
     2 C         -0.245755   0.189005   1.052351 C.3        1 UNL1     0.1342
     3 C         -1.031561   1.505239   1.154838 C.3        1 UNL1     0.1174
     4 C         -0.967807   2.127275   2.552022 C.3        1 UNL1     0.1456
     5 C         0.461591   2.149358   3.123596 C.3        1 UNL1     0.2326
     6 O         0.993889   0.826983   3.152786 O.3        1 UNL1     -0.3076
     7 O         1.327016   3.093331   2.466881 O.3        1 UNL1     -0.4605
     8 C         0.713964   4.221428   1.95201 C.ar        1 UNL1     0.1310
     9 C         -0.408654   4.223974   1.117131 C.ar        1 UNL1     0.0226
     10 C         -0.968071   5.423218   0.660218 C.ar        1 UNL1     0.1343
     11 C         -0.432216   6.650919   1.046806 C.ar        1 UNL1     0.1007
     12 C         0.713436   6.660342   1.846916 C.ar        1 UNL1     0.1389
     13 C         1.277317   5.454318   2.304055 C.ar        1 UNL1     0.0229
     14 C         -1.033202   7.948942   0.66196 C.2        1 UNL1     0.1740
     15 C         -0.462778   9.1567   1.345689 C.3        1 UNL1     0.0520
     16 C         1.04757   8.989093   1.439033 C.3        1 UNL1     0.1322
     17 O         1.386443   7.807522   2.198062 O.3        1 UNL1     -0.4828
     18 C         1.764812   9.105003   0.091868 C.ar        1 UNL1     -0.0067
     19 C         1.359708   8.284877   -0.981211 C.ar        1 UNL1     -0.0516
     20 C         2.024993   8.33183   -2.212127 C.ar        1 UNL1     -0.0198
     21 C         3.099064   9.187423   -2.379933 C.ar        1 UNL1     0.1169
     22 C         3.500339   10.031435   -1.352577 C.ar        1 UNL1     -0.0198
     23 C         2.823545   9.997959   -0.12747 C.ar        1 UNL1     -0.0516
     24 O         3.746297   9.178374   -3.58052 O.3        1 UNL1     -0.5068
     25 O         -1.989299   8.051273   -0.10217 O.2        1 UNL1     -0.2917
     26 O         -2.062024   5.356702   -0.152449 O.3        1 UNL1     -0.5058
     27 O         2.222329   0.450869   1.186551 O.3        1 UNL1     -0.3648
     28 O         -1.123515   -0.868456   1.481325 O.3        1 UNL1     -0.3841
     29 O         -0.634907   2.414024   0.125805 O.3        1 UNL1     -0.3863
     30 O         -1.813508   1.371539   3.446082 O.3        1 UNL1     -0.3829
     31 H         1.181771   -0.909759   2.208275 H        1 UNL1     0.0937
     32 H         0.0   0.0   -0.0 H        1 UNL1     0.0671
     33 H         -2.08865   1.281163   0.954657 H        1 UNL1     0.0649
     34 H         -1.362261   3.149071   2.524838 H        1 UNL1     0.0683
     35 H         0.324611   2.461138   4.166625 H        1 UNL1     0.1085
     36 H         -0.905159   3.304684   0.826426 H        1 UNL1     0.0691
     37 H         2.169931   5.488737   2.924981 H        1 UNL1     0.0691
     38 H         -0.915559   9.218532   2.341025 H        1 UNL1     0.0385
     39 H         -0.745922   10.053909   0.784776 H        1 UNL1     0.0385
     40 H         1.429002   9.822789   2.043997 H        1 UNL1     0.0789
     41 H         0.525315   7.598226   -0.871901 H        1 UNL1     0.0623
     42 H         1.710654   7.685854   -3.028165 H        1 UNL1     0.0654
     43 H         4.33064   10.716093   -1.478095 H        1 UNL1     0.0654
     44 H         3.157237   10.678721   0.649741 H        1 UNL1     0.0623
     45 H         3.082353   9.22766   -4.287248 H        1 UNL1     0.2921
     46 H         -2.597288   4.58404   0.088168 H        1 UNL1     0.2922
     47 H         2.876814   0.859462   1.770128 H        1 UNL1     0.2126
     48 H         -1.564439   -0.553633   2.293855 H        1 UNL1     0.2101
     49 H         -1.196881   2.292921   -0.65606 H        1 UNL1     0.2100
     50 H         -1.296925   0.607185   3.775655 H        1 UNL1     0.2102
@<TRIPOS>BOND
     1     1     2    1
     2     1     6    1
     3     2     3    1
     4     3     4    1
     5     3    29    1
     6     3    33    1
     7     4     5    1
     8     5     6    1
     9     5     7    1
    10     5    35    1
    11     7     8    1
    12     8     9   ar
    13     8    13   ar
    14     9    10   ar
    15     9    36    1
    16    10    11   ar
    17    10    26    1
    18    11    12   ar
    19    11    14    1
    20    12    13   ar
    21    12    17    1
    22    13    37    1
    23    14    15    1
    24    14    25    2
    25    15    16    1
    26    15    38    1
    27    15    39    1
    28    16    17    1
    29    16    18    1
    30    16    40    1
    31    18    19   ar
    32    18    23   ar
    33    19    20   ar
    34    19    41    1
    35    20    21   ar
    36    20    42    1
    37    21    22   ar
    38    21    24    1
    39    22    23   ar
    40    22    43    1
    41    23    44    1
    42    24    45    1
    43    26    46    1
    44    27    47    1
    45    28    48    1
    46    29    49    1
    47    30    50    1
    48     1    31    1
    49     1    27    1
    50     2    32    1
    51     2    28    1
    52     4    34    1
    53     4    30    1
