@<TRIPOS>MOLECULE
*****
 50 53 0 0 0
SMALL
GASTEIGER

@<TRIPOS>ATOM
     1 C         -0.163995   -1.279351   1.762717 C.3        1 UNL1     0.1889
     2 C         -0.372123   -1.001378   0.249656 C.3        1 UNL1     0.1342
     3 C         -1.825303   -1.130451   -0.232083 C.3        1 UNL1     0.1174
     4 C         -2.597544   -2.231148   0.499509 C.3        1 UNL1     0.1456
     5 C         -2.395117   -2.180114   2.024889 C.3        1 UNL1     0.2326
     6 O         -1.006156   -2.269611   2.334157 O.3        1 UNL1     -0.3076
     7 O         -3.04333   -1.058535   2.651945 O.3        1 UNL1     -0.4605
     8 C         -3.50234   -1.266195   3.940245 C.ar        1 UNL1     0.1310
     9 C         -4.214739   -2.388817   4.375569 C.ar        1 UNL1     0.0226
     10 C         -4.622463   -2.514988   5.70889 C.ar        1 UNL1     0.1343
     11 C         -4.306655   -1.531651   6.645455 C.ar        1 UNL1     0.1007
     12 C         -3.631369   -0.386868   6.213894 C.ar        1 UNL1     0.1389
     13 C         -3.223821   -0.259018   4.87263 C.ar        1 UNL1     0.0229
     14 C         -4.639345   -1.65292   8.083775 C.2        1 UNL1     0.1740
     15 C         -4.031479   -0.614744   8.98057 C.3        1 UNL1     0.0520
     16 C         -4.095519   0.731242   8.271925 C.3        1 UNL1     0.1322
     17 O         -3.364391   0.690402   7.026592 O.3        1 UNL1     -0.4828
     18 C         -5.511634   1.300723   8.157754 C.ar        1 UNL1     -0.0067
     19 C         -5.756967   2.375828   7.279019 C.ar        1 UNL1     -0.0516
     20 C         -7.029884   2.951078   7.185576 C.ar        1 UNL1     -0.0198
     21 C         -8.061724   2.466184   7.969166 C.ar        1 UNL1     0.1169
     22 C         -7.859319   1.38681   8.819355 C.ar        1 UNL1     -0.0198
     23 C         -6.591004   0.799421   8.899409 C.ar        1 UNL1     -0.0516
     24 O         -9.278363   3.076139   7.87892 O.3        1 UNL1     -0.5068
     25 O         -5.299875   -2.577832   8.549309 O.2        1 UNL1     -0.2917
     26 O         -5.315088   -3.634046   6.068843 O.3        1 UNL1     -0.5058
     27 O         -0.127927   -0.102361   2.554034 O.3        1 UNL1     -0.3648
     28 O         0.413284   -1.946788   -0.500039 O.3        1 UNL1     -0.3841
     29 O         -2.488643   0.134496   -0.18711 O.3        1 UNL1     -0.3863
     30 O         -2.158679   -3.51927   0.01595 O.3        1 UNL1     -0.3829
     31 H         0.839779   -1.705469   1.867317 H        1 UNL1     0.0937
     32 H         0.0   0.0   0.0 H        1 UNL1     0.0671
     33 H         -1.802765   -1.410472   -1.294533 H        1 UNL1     0.0649
     34 H         -3.666666   -2.151249   0.273688 H        1 UNL1     0.0683
     35 H         -2.862288   -3.105358   2.384826 H        1 UNL1     0.1085
     36 H         -4.442438   -3.213413   3.709 H        1 UNL1     0.0691
     37 H         -2.700408   0.642555   4.561665 H        1 UNL1     0.0691
     38 H         -2.994785   -0.910264   9.174118 H        1 UNL1     0.0385
     39 H         -4.568582   -0.606066   9.93515 H        1 UNL1     0.0385
     40 H         -3.542371   1.449959   8.891598 H        1 UNL1     0.0789
     41 H         -4.961526   2.780504   6.660019 H        1 UNL1     0.0623
     42 H         -7.203559   3.7874   6.512959 H        1 UNL1     0.0654
     43 H         -8.664032   0.989456   9.426361 H        1 UNL1     0.0654
     44 H         -6.471308   -0.048972   9.566302 H        1 UNL1     0.0623
     45 H         -9.181251   3.998272   8.166941 H        1 UNL1     0.2921
     46 H         -4.864454   -4.069048   6.809865 H        1 UNL1     0.2922
     47 H         0.542346   0.50788   2.216099 H        1 UNL1     0.2126
     48 H         1.350026   -1.734975   -0.322891 H        1 UNL1     0.2101
     49 H         -2.127288   0.72111   -0.870557 H        1 UNL1     0.2100
     50 H         -2.445158   -3.604693   -0.916973 H        1 UNL1     0.2102
@<TRIPOS>BOND
     1     1     2    1
     2     1     6    1
     3     2     3    1
     4     3     4    1
     5     3    29    1
     6     3    33    1
     7     4     5    1
     8     5     6    1
     9     5     7    1
    10     5    35    1
    11     7     8    1
    12     8     9   ar
    13     8    13   ar
    14     9    10   ar
    15     9    36    1
    16    10    11   ar
    17    10    26    1
    18    11    12   ar
    19    11    14    1
    20    12    13   ar
    21    12    17    1
    22    13    37    1
    23    14    15    1
    24    14    25    2
    25    15    16    1
    26    15    38    1
    27    15    39    1
    28    16    17    1
    29    16    18    1
    30    16    40    1
    31    18    19   ar
    32    18    23   ar
    33    19    20   ar
    34    19    41    1
    35    20    21   ar
    36    20    42    1
    37    21    22   ar
    38    21    24    1
    39    22    23   ar
    40    22    43    1
    41    23    44    1
    42    24    45    1
    43    26    46    1
    44    27    47    1
    45    28    48    1
    46    29    49    1
    47    30    50    1
    48     1    31    1
    49     1    27    1
    50     2    32    1
    51     2    28    1
    52     4    34    1
    53     4    30    1
