@<TRIPOS>MOLECULE
*****
 50 53 0 0 0
SMALL
GASTEIGER

@<TRIPOS>ATOM
     1 C         -0.326516   -1.366727   1.672199 C.3        1 UNL1     0.1889
     2 C         -0.462171   -0.979453   0.175016 C.3        1 UNL1     0.1342
     3 C         -1.90488   -0.954248   -0.35264 C.3        1 UNL1     0.1174
     4 C         -2.789287   -2.028   0.286107 C.3        1 UNL1     0.1456
     5 C         -2.632256   -2.088363   1.816487 C.3        1 UNL1     0.2326
     6 O         -1.266222   -2.314838   2.156381 O.3        1 UNL1     -0.3076
     7 O         -3.204383   -0.956305   2.496513 O.3        1 UNL1     -0.4605
     8 C         -3.720134   -1.202935   3.756157 C.ar        1 UNL1     0.1310
     9 C         -4.855851   -1.972519   4.030362 C.ar        1 UNL1     0.0226
     10 C         -5.290268   -2.178647   5.34516 C.ar        1 UNL1     0.1343
     11 C         -4.585058   -1.639337   6.420178 C.ar        1 UNL1     0.1007
     12 C         -3.473058   -0.835061   6.156775 C.ar        1 UNL1     0.1389
     13 C         -3.03799   -0.62577   4.834525 C.ar        1 UNL1     0.0229
     14 C         -4.95085   -1.894714   7.83267 C.2        1 UNL1     0.1740
     15 C         -3.958651   -1.42468   8.855489 C.3        1 UNL1     0.0520
     16 C         -3.420866   -0.069277   8.417737 C.3        1 UNL1     0.1322
     17 O         -2.769506   -0.166992   7.131948 O.3        1 UNL1     -0.4828
     18 C         -4.444144   1.063819   8.525994 C.ar        1 UNL1     -0.0067
     19 C         -4.090673   2.359543   8.096609 C.ar        1 UNL1     -0.0516
     20 C         -4.985941   3.42813   8.225371 C.ar        1 UNL1     -0.0198
     21 C         -6.232123   3.215943   8.787363 C.ar        1 UNL1     0.1169
     22 C         -6.621602   1.944745   9.188862 C.ar        1 UNL1     -0.0198
     23 C         -5.733401   0.872386   9.043258 C.ar        1 UNL1     -0.0516
     24 O         -7.063048   4.287974   8.931289 O.3        1 UNL1     -0.5068
     25 O         -5.95374   -2.518795   8.169151 O.2        1 UNL1     -0.2917
     26 O         -6.405932   -2.938309   5.544639 O.3        1 UNL1     -0.5058
     27 O         -0.217737   -0.248026   2.537914 O.3        1 UNL1     -0.3648
     28 O         0.265225   -1.940472   -0.612412 O.3        1 UNL1     -0.3841
     29 O         -2.461475   0.357486   -0.244522 O.3        1 UNL1     -0.3863
     30 O         -2.44416   -3.316653   -0.26702 O.3        1 UNL1     -0.3829
     31 H         0.634342   -1.882517   1.776081 H        1 UNL1     0.0937
     32 H         0.0   0.0   0.0 H        1 UNL1     0.0671
     33 H         -1.871774   -1.169269   -1.429854 H        1 UNL1     0.0649
     34 H         -3.840235   -1.843478   0.037388 H        1 UNL1     0.0683
     35 H         -3.186275   -2.990784   2.103852 H        1 UNL1     0.1085
     36 H         -5.414954   -2.464832   3.24223 H        1 UNL1     0.0691
     37 H         -2.170069   0.005388   4.656067 H        1 UNL1     0.0691
     38 H         -3.157493   -2.169708   8.906546 H        1 UNL1     0.0385
     39 H         -4.446856   -1.379716   9.834985 H        1 UNL1     0.0385
     40 H         -2.614971   0.199455   9.114039 H        1 UNL1     0.0789
     41 H         -3.11508   2.553874   7.6606 H        1 UNL1     0.0623
     42 H         -4.697203   4.424985   7.901454 H        1 UNL1     0.0654
     43 H         -7.600709   1.764528   9.616391 H        1 UNL1     0.0654
     44 H         -6.074763   -0.109127   9.357819 H        1 UNL1     0.0623
     45 H         -6.642112   4.923747   9.53239 H        1 UNL1     0.2921
     46 H         -6.197957   -3.665087   6.152877 H        1 UNL1     0.2922
     47 H         0.511586   0.322465   2.257758 H        1 UNL1     0.2126
     48 H         1.205415   -1.851682   -0.363633 H        1 UNL1     0.2101
     49 H         -2.030741   0.952084   -0.879121 H        1 UNL1     0.2100
     50 H         -2.686009   -3.31185   -1.216335 H        1 UNL1     0.2102
@<TRIPOS>BOND
     1     1     2    1
     2     1     6    1
     3     2     3    1
     4     3     4    1
     5     3    29    1
     6     3    33    1
     7     4     5    1
     8     5     6    1
     9     5     7    1
    10     5    35    1
    11     7     8    1
    12     8     9   ar
    13     8    13   ar
    14     9    10   ar
    15     9    36    1
    16    10    11   ar
    17    10    26    1
    18    11    12   ar
    19    11    14    1
    20    12    13   ar
    21    12    17    1
    22    13    37    1
    23    14    15    1
    24    14    25    2
    25    15    16    1
    26    15    38    1
    27    15    39    1
    28    16    17    1
    29    16    18    1
    30    16    40    1
    31    18    19   ar
    32    18    23   ar
    33    19    20   ar
    34    19    41    1
    35    20    21   ar
    36    20    42    1
    37    21    22   ar
    38    21    24    1
    39    22    23   ar
    40    22    43    1
    41    23    44    1
    42    24    45    1
    43    26    46    1
    44    27    47    1
    45    28    48    1
    46    29    49    1
    47    30    50    1
    48     1    31    1
    49     1    27    1
    50     2    32    1
    51     2    28    1
    52     4    34    1
    53     4    30    1
