@<TRIPOS>MOLECULE
*****
 50 53 0 0 0
SMALL
GASTEIGER

@<TRIPOS>ATOM
     1 C         0.67602   -1.164502   -1.719807 C.3        1 UNL1     0.1889
     2 C         -0.342002   -0.226193   -1.017562 C.3        1 UNL1     0.1342
     3 C         -1.777537   -0.769996   -0.954453 C.3        1 UNL1     0.1174
     4 C         -2.156151   -1.590683   -2.189864 C.3        1 UNL1     0.1456
     5 C         -1.06708   -2.606568   -2.580078 C.3        1 UNL1     0.2326
     6 O         0.169566   -1.932394   -2.801584 O.3        1 UNL1     -0.3076
     7 O         -0.954397   -3.70778   -1.66032 O.3        1 UNL1     -0.4605
     8 C         -2.14647   -4.252985   -1.218459 C.ar        1 UNL1     0.1310
     9 C         -2.426646   -5.620473   -1.124769 C.ar        1 UNL1     0.0226
     10 C         -3.661676   -6.075164   -0.647421 C.ar        1 UNL1     0.1343
     11 C         -4.638727   -5.172704   -0.229357 C.ar        1 UNL1     0.1007
     12 C         -4.385956   -3.804245   -0.356672 C.ar        1 UNL1     0.1389
     13 C         -3.145054   -3.347294   -0.839153 C.ar        1 UNL1     0.0229
     14 C         -5.928591   -5.598705   0.361345 C.2        1 UNL1     0.1740
     15 C         -6.762307   -4.503492   0.95882 C.3        1 UNL1     0.0520
     16 C         -6.680949   -3.28528   0.049261 C.3        1 UNL1     0.1322
     17 O         -5.315773   -2.829836   -0.076965 O.3        1 UNL1     -0.4828
     18 C         -7.417155   -3.459482   -1.281295 C.ar        1 UNL1     -0.0067
     19 C         -6.816602   -4.211589   -2.311773 C.ar        1 UNL1     -0.0516
     20 C         -7.441163   -4.350942   -3.55695 C.ar        1 UNL1     -0.0198
     21 C         -8.660201   -3.738343   -3.786069 C.ar        1 UNL1     0.1169
     22 C         -9.292316   -3.019052   -2.780142 C.ar        1 UNL1     -0.0198
     23 C         -8.676662   -2.89492   -1.528896 C.ar        1 UNL1     -0.0516
     24 O         -9.220346   -3.864701   -5.023273 O.3        1 UNL1     -0.5068
     25 O         -6.280176   -6.772717   0.442391 O.2        1 UNL1     -0.2917
     26 O         -3.872237   -7.421627   -0.58195 O.3        1 UNL1     -0.5058
     27 O         1.425702   -1.962019   -0.817183 O.3        1 UNL1     -0.3648
     28 O         -0.386989   1.019177   -1.738489 O.3        1 UNL1     -0.3841
     29 O         -1.999031   -1.47595   0.268127 O.3        1 UNL1     -0.3863
     30 O         -2.377404   -0.697107   -3.302635 O.3        1 UNL1     -0.3829
     31 H         1.4231   -0.517658   -2.192611 H        1 UNL1     0.0937
     32 H         0.0   0.0   0.0 H        1 UNL1     0.0671
     33 H         -2.46086   0.090107   -0.922636 H        1 UNL1     0.0649
     34 H         -3.098357   -2.120882   -2.012276 H        1 UNL1     0.0683
     35 H         -1.399716   -2.990488   -3.55262 H        1 UNL1     0.1085
     36 H         -1.688657   -6.372615   -1.381239 H        1 UNL1     0.0691
     37 H         -2.973535   -2.276837   -0.929692 H        1 UNL1     0.0691
     38 H         -6.35665   -4.282712   1.951908 H        1 UNL1     0.0385
     39 H         -7.790413   -4.861038   1.081044 H        1 UNL1     0.0385
     40 H         -7.19831   -2.46322   0.56217 H        1 UNL1     0.0789
     41 H         -5.85572   -4.694599   -2.159924 H        1 UNL1     0.0623
     42 H         -6.96234   -4.923562   -4.347423 H        1 UNL1     0.0654
     43 H         -10.254088   -2.54782   -2.943988 H        1 UNL1     0.0654
     44 H         -9.203926   -2.33465   -0.762779 H        1 UNL1     0.0623
     45 H         -9.814894   -3.111081   -5.169174 H        1 UNL1     0.2921
     46 H         -3.493519   -7.768652   0.241189 H        1 UNL1     0.2922
     47 H         1.750827   -2.75661   -1.263028 H        1 UNL1     0.2126
     48 H         -1.130885   0.951459   -2.367588 H        1 UNL1     0.2101
     49 H         -1.887326   -2.429086   0.123736 H        1 UNL1     0.2100
     50 H         -2.413766   0.217134   -2.952558 H        1 UNL1     0.2102
@<TRIPOS>BOND
     1     1     2    1
     2     1     6    1
     3     2     3    1
     4     3     4    1
     5     3    29    1
     6     3    33    1
     7     4     5    1
     8     5     6    1
     9     5     7    1
    10     5    35    1
    11     7     8    1
    12     8     9   ar
    13     8    13   ar
    14     9    10   ar
    15     9    36    1
    16    10    11   ar
    17    10    26    1
    18    11    12   ar
    19    11    14    1
    20    12    13   ar
    21    12    17    1
    22    13    37    1
    23    14    15    1
    24    14    25    2
    25    15    16    1
    26    15    38    1
    27    15    39    1
    28    16    17    1
    29    16    18    1
    30    16    40    1
    31    18    19   ar
    32    18    23   ar
    33    19    20   ar
    34    19    41    1
    35    20    21   ar
    36    20    42    1
    37    21    22   ar
    38    21    24    1
    39    22    23   ar
    40    22    43    1
    41    23    44    1
    42    24    45    1
    43    26    46    1
    44    27    47    1
    45    28    48    1
    46    29    49    1
    47    30    50    1
    48     1    31    1
    49     1    27    1
    50     2    32    1
    51     2    28    1
    52     4    34    1
    53     4    30    1
