@<TRIPOS>MOLECULE
*****
 50 53 0 0 0
SMALL
GASTEIGER

@<TRIPOS>ATOM
     1 C         -0.015155   -1.119704   1.875324 C.3        1 UNL1     0.1889
     2 C         -0.272925   -1.003672   0.34888 C.3        1 UNL1     0.1342
     3 C         -1.715367   -1.309258   -0.082914 C.3        1 UNL1     0.1174
     4 C         -2.369494   -2.403221   0.764718 C.3        1 UNL1     0.1456
     5 C         -2.147905   -2.19243   2.273635 C.3        1 UNL1     0.2326
     6 O         -0.751803   -2.12544   2.555204 O.3        1 UNL1     -0.3076
     7 O         -2.887669   -1.081442   2.811942 O.3        1 UNL1     -0.4605
     8 C         -3.304258   -1.209637   4.124782 C.ar        1 UNL1     0.1310
     9 C         -3.907894   -2.344909   4.676217 C.ar        1 UNL1     0.0226
     10 C         -4.279758   -2.383765   6.025332 C.ar        1 UNL1     0.1343
     11 C         -4.035077   -1.295898   6.862301 C.ar        1 UNL1     0.1007
     12 C         -3.470281   -0.141477   6.313574 C.ar        1 UNL1     0.1389
     13 C         -3.098879   -0.101692   4.956405 C.ar        1 UNL1     0.0229
     14 C         -4.33081   -1.313911   8.313635 C.2        1 UNL1     0.1740
     15 C         -3.800735   -0.150229   9.098755 C.3        1 UNL1     0.0520
     16 C         -3.994755   1.115273   8.274851 C.3        1 UNL1     0.1322
     17 O         -3.284618   1.024138   7.020072 O.3        1 UNL1     -0.4828
     18 C         -5.457084   1.548573   8.14614 C.ar        1 UNL1     -0.0067
     19 C         -5.969353   1.889182   6.877369 C.ar        1 UNL1     -0.0516
     20 C         -7.288454   2.334828   6.7313 C.ar        1 UNL1     -0.0198
     21 C         -8.101264   2.450947   7.84471 C.ar        1 UNL1     0.1169
     22 C         -7.63586   2.091214   9.102816 C.ar        1 UNL1     -0.0198
     23 C         -6.322546   1.627984   9.246624 C.ar        1 UNL1     -0.0516
     24 O         -9.368257   2.924412   7.66876 O.3        1 UNL1     -0.5068
     25 O         -4.899581   -2.245831   8.876228 O.2        1 UNL1     -0.2917
     26 O         -4.865321   -3.52066   6.500903 O.3        1 UNL1     -0.5058
     27 O         -0.076213   0.124044   2.555139 O.3        1 UNL1     -0.3648
     28 O         0.584977   -1.93884   -0.330951 O.3        1 UNL1     -0.3841
     29 O         -2.493049   -0.111575   -0.136764 O.3        1 UNL1     -0.3863
     30 O         -1.820256   -3.685143   0.389615 O.3        1 UNL1     -0.3829
     31 H         1.025577   -1.440693   1.993319 H        1 UNL1     0.0937
     32 H         0.0   0.0   0.0 H        1 UNL1     0.0671
     33 H         -1.684094   -1.683514   -1.115713 H        1 UNL1     0.0649
     34 H         -3.444941   -2.442731   0.559161 H        1 UNL1     0.0683
     35 H         -2.520761   -3.119064   2.727736 H        1 UNL1     0.1085
     36 H         -4.074031   -3.243174   4.091719 H        1 UNL1     0.0691
     37 H         -2.661946   0.80938   4.553255 H        1 UNL1     0.0691
     38 H         -2.738931   -0.337005   9.291661 H        1 UNL1     0.0385
     39 H         -4.319858   -0.100823   10.062005 H        1 UNL1     0.0385
     40 H         -3.496009   1.932108   8.813881 H        1 UNL1     0.0789
     41 H         -5.348659   1.815393   5.989144 H        1 UNL1     0.0623
     42 H         -7.66812   2.60579   5.749238 H        1 UNL1     0.0654
     43 H         -8.268597   2.163967   9.979321 H        1 UNL1     0.0654
     44 H         -5.995486   1.345709   10.242715 H        1 UNL1     0.0623
     45 H         -9.312002   3.83123   7.326366 H        1 UNL1     0.2921
     46 H         -4.352827   -3.858568   7.252289 H        1 UNL1     0.2922
     47 H         0.53667   0.75561   2.153445 H        1 UNL1     0.2126
     48 H         1.502685   -1.652453   -0.159117 H        1 UNL1     0.2101
     49 H         -2.198965   0.439753   -0.879291 H        1 UNL1     0.2100
     50 H         -2.093893   -3.872313   -0.532233 H        1 UNL1     0.2102
@<TRIPOS>BOND
     1     1     2    1
     2     1     6    1
     3     2     3    1
     4     3     4    1
     5     3    29    1
     6     3    33    1
     7     4     5    1
     8     5     6    1
     9     5     7    1
    10     5    35    1
    11     7     8    1
    12     8     9   ar
    13     8    13   ar
    14     9    10   ar
    15     9    36    1
    16    10    11   ar
    17    10    26    1
    18    11    12   ar
    19    11    14    1
    20    12    13   ar
    21    12    17    1
    22    13    37    1
    23    14    15    1
    24    14    25    2
    25    15    16    1
    26    15    38    1
    27    15    39    1
    28    16    17    1
    29    16    18    1
    30    16    40    1
    31    18    19   ar
    32    18    23   ar
    33    19    20   ar
    34    19    41    1
    35    20    21   ar
    36    20    42    1
    37    21    22   ar
    38    21    24    1
    39    22    23   ar
    40    22    43    1
    41    23    44    1
    42    24    45    1
    43    26    46    1
    44    27    47    1
    45    28    48    1
    46    29    49    1
    47    30    50    1
    48     1    31    1
    49     1    27    1
    50     2    32    1
    51     2    28    1
    52     4    34    1
    53     4    30    1
