@<TRIPOS>MOLECULE
*****
 50 53 0 0 0
SMALL
GASTEIGER

@<TRIPOS>ATOM
     1 C         -0.291524   -1.308139   1.7247 C.3        1 UNL1     0.1889
     2 C         -0.440757   -0.98149   0.214412 C.3        1 UNL1     0.1342
     3 C         -1.885583   -1.00677   -0.307417 C.3        1 UNL1     0.1174
     4 C         -2.744805   -2.073533   0.375863 C.3        1 UNL1     0.1456
     5 C         -2.580981   -2.071863   1.90672 C.3        1 UNL1     0.2326
     6 O         -1.209246   -2.256467   2.248968 O.3        1 UNL1     -0.3076
     7 O         -3.174402   -0.926797   2.545464 O.3        1 UNL1     -0.4605
     8 C         -3.669665   -1.132793   3.820536 C.ar        1 UNL1     0.1310
     9 C         -4.460685   -2.216361   4.217358 C.ar        1 UNL1     0.0226
     10 C         -4.900378   -2.345371   5.540206 C.ar        1 UNL1     0.1343
     11 C         -4.539503   -1.405468   6.504671 C.ar        1 UNL1     0.1007
     12 C         -3.78416   -0.297475   6.111492 C.ar        1 UNL1     0.1389
     13 C         -3.344387   -0.166602   4.780739 C.ar        1 UNL1     0.0229
     14 C         -4.905967   -1.536761   7.933874 C.2        1 UNL1     0.1740
     15 C         -4.249426   -0.56015   8.86486 C.3        1 UNL1     0.0520
     16 C         -4.213678   0.802506   8.18674 C.3        1 UNL1     0.1322
     17 O         -3.463669   0.742039   6.953492 O.3        1 UNL1     -0.4828
     18 C         -5.587913   1.464738   8.061629 C.ar        1 UNL1     -0.0067
     19 C         -5.988197   2.000184   6.820145 C.ar        1 UNL1     -0.0516
     20 C         -7.21835   2.65432   6.68306 C.ar        1 UNL1     -0.0198
     21 C         -8.052067   2.785717   7.779179 C.ar        1 UNL1     0.1169
     22 C         -7.700474   2.239657   9.006794 C.ar        1 UNL1     -0.0198
     23 C         -6.478567   1.569328   9.139679 C.ar        1 UNL1     -0.0516
     24 O         -9.225299   3.462119   7.616676 O.3        1 UNL1     -0.5068
     25 O         -5.633093   -2.427103   8.366381 O.2        1 UNL1     -0.2917
     26 O         -5.670038   -3.424995   5.86211 O.3        1 UNL1     -0.5058
     27 O         -0.203239   -0.15503   2.546486 O.3        1 UNL1     -0.3648
     28 O         0.303898   -1.956546   -0.538888 O.3        1 UNL1     -0.3841
     29 O         -2.469343   0.296195   -0.2471 O.3        1 UNL1     -0.3863
     30 O         -2.374565   -3.374935   -0.129078 O.3        1 UNL1     -0.3829
     31 H         0.680377   -1.799321   1.843978 H        1 UNL1     0.0937
     32 H         0.0   0.0   0.0 H        1 UNL1     0.0671
     33 H         -1.851855   -1.2622   -1.375751 H        1 UNL1     0.0649
     34 H         -3.800309   -1.920744   0.12493 H        1 UNL1     0.0683
     35 H         -3.114782   -2.97401   2.230858 H        1 UNL1     0.1085
     36 H         -4.728466   -3.009564   3.527978 H        1 UNL1     0.0691
     37 H         -2.758444   0.705901   4.499846 H        1 UNL1     0.0691
     38 H         -3.237637   -0.926286   9.069196 H        1 UNL1     0.0385
     39 H         -4.802507   -0.537883   9.81005 H        1 UNL1     0.0385
     40 H         -3.627108   1.470072   8.832349 H        1 UNL1     0.0789
     41 H         -5.34767   1.918139   5.94685 H        1 UNL1     0.0623
     42 H         -7.510447   3.073395   5.723338 H        1 UNL1     0.0654
     43 H         -8.352544   2.323654   9.867991 H        1 UNL1     0.0654
     44 H         -6.240732   1.145824   10.110722 H        1 UNL1     0.0623
     45 H         -9.020158   4.369928   7.340057 H        1 UNL1     0.2921
     46 H         -5.250049   -3.9178   6.584719 H        1 UNL1     0.2922
     47 H         0.526142   0.40931   2.254282 H        1 UNL1     0.2126
     48 H         1.237284   -1.867746   -0.26569 H        1 UNL1     0.2101
     49 H         -2.047475   0.877361   -0.899839 H        1 UNL1     0.2100
     50 H         -2.614738   -3.409594   -1.078197 H        1 UNL1     0.2102
@<TRIPOS>BOND
     1     1     2    1
     2     1     6    1
     3     2     3    1
     4     3     4    1
     5     3    29    1
     6     3    33    1
     7     4     5    1
     8     5     6    1
     9     5     7    1
    10     5    35    1
    11     7     8    1
    12     8     9   ar
    13     8    13   ar
    14     9    10   ar
    15     9    36    1
    16    10    11   ar
    17    10    26    1
    18    11    12   ar
    19    11    14    1
    20    12    13   ar
    21    12    17    1
    22    13    37    1
    23    14    15    1
    24    14    25    2
    25    15    16    1
    26    15    38    1
    27    15    39    1
    28    16    17    1
    29    16    18    1
    30    16    40    1
    31    18    19   ar
    32    18    23   ar
    33    19    20   ar
    34    19    41    1
    35    20    21   ar
    36    20    42    1
    37    21    22   ar
    38    21    24    1
    39    22    23   ar
    40    22    43    1
    41    23    44    1
    42    24    45    1
    43    26    46    1
    44    27    47    1
    45    28    48    1
    46    29    49    1
    47    30    50    1
    48     1    31    1
    49     1    27    1
    50     2    32    1
    51     2    28    1
    52     4    34    1
    53     4    30    1
