@<TRIPOS>MOLECULE
*****
 50 53 0 0 0
SMALL
GASTEIGER

@<TRIPOS>ATOM
     1 C         -0.350279   -1.338454   1.690163 C.3        1 UNL1     0.1889
     2 C         -0.471561   -0.972873   0.186307 C.3        1 UNL1     0.1342
     3 C         -1.910039   -0.9439   -0.352585 C.3        1 UNL1     0.1174
     4 C         -2.808046   -2.000564   0.295615 C.3        1 UNL1     0.1456
     5 C         -2.662929   -2.038953   1.827878 C.3        1 UNL1     0.2326
     6 O         -1.301389   -2.271392   2.1815 O.3        1 UNL1     -0.3076
     7 O         -3.23071   -0.892059   2.486345 O.3        1 UNL1     -0.4605
     8 C         -3.757858   -1.115304   3.745632 C.ar        1 UNL1     0.1310
     9 C         -4.592099   -2.181861   4.09748 C.ar        1 UNL1     0.0226
     10 C         -5.062121   -2.33134   5.407686 C.ar        1 UNL1     0.1343
     11 C         -4.689613   -1.430252   6.404239 C.ar        1 UNL1     0.1007
     12 C         -3.890285   -0.338188   6.056022 C.ar        1 UNL1     0.1389
     13 C         -3.419965   -0.18664   4.737969 C.ar        1 UNL1     0.0229
     14 C         -5.088657   -1.58732   7.822071 C.2        1 UNL1     0.1740
     15 C         -4.418821   -0.658615   8.791801 C.3        1 UNL1     0.0520
     16 C         -4.32443   0.719718   8.152078 C.3        1 UNL1     0.1322
     17 O         -3.552389   0.667053   6.93214 O.3        1 UNL1     -0.4828
     18 C         -5.673202   1.430938   8.019018 C.ar        1 UNL1     -0.0067
     19 C         -6.023097   2.027934   6.790448 C.ar        1 UNL1     -0.0516
     20 C         -7.227847   2.726835   6.648757 C.ar        1 UNL1     -0.0198
     21 C         -8.085925   2.841885   7.727781 C.ar        1 UNL1     0.1169
     22 C         -7.784646   2.236429   8.940832 C.ar        1 UNL1     -0.0198
     23 C         -6.588534   1.521793   9.077463 C.ar        1 UNL1     -0.0516
     24 O         -9.232421   3.562169   7.563045 O.3        1 UNL1     -0.5068
     25 O         -5.853362   -2.463936   8.216097 O.2        1 UNL1     -0.2917
     26 O         -5.873393   -3.392671   5.685172 O.3        1 UNL1     -0.5058
     27 O         -0.23869   -0.207657   2.539653 O.3        1 UNL1     -0.3648
     28 O         0.253697   -1.951654   -0.580958 O.3        1 UNL1     -0.3841
     29 O         -2.456538   0.373829   -0.268545 O.3        1 UNL1     -0.3863
     30 O         -2.469493   -3.300248   -0.235322 O.3        1 UNL1     -0.3829
     31 H         0.605472   -1.860439   1.809114 H        1 UNL1     0.0937
     32 H         0.0   0.0   0.0 H        1 UNL1     0.0671
     33 H         -1.870688   -1.175523   -1.426141 H        1 UNL1     0.0649
     34 H         -3.855546   -1.811261   0.036177 H        1 UNL1     0.0683
     35 H         -3.226531   -2.932348   2.124658 H        1 UNL1     0.1085
     36 H         -4.87221   -2.946876   3.381651 H        1 UNL1     0.0691
     37 H         -2.799951   0.672849   4.492297 H        1 UNL1     0.0691
     38 H         -3.423993   -1.063933   9.005254 H        1 UNL1     0.0385
     39 H         -4.989602   -0.643037   9.726544 H        1 UNL1     0.0385
     40 H         -3.729058   1.349654   8.826788 H        1 UNL1     0.0789
     41 H         -5.362425   1.959657   5.931087 H        1 UNL1     0.0623
     42 H         -7.480843   3.192917   5.699667 H        1 UNL1     0.0654
     43 H         -8.456467   2.307511   9.787894 H        1 UNL1     0.0654
     44 H         -6.390196   1.052612   10.036305 H        1 UNL1     0.0623
     45 H         -8.991255   4.475083   7.336894 H        1 UNL1     0.2921
     46 H         -5.485148   -3.917711   6.402814 H        1 UNL1     0.2922
     47 H         0.497401   0.352535   2.256432 H        1 UNL1     0.2126
     48 H         1.192711   -1.866779   -0.326434 H        1 UNL1     0.2101
     49 H         -2.015937   0.955262   -0.908545 H        1 UNL1     0.2100
     50 H         -2.704213   -3.30789   -1.186406 H        1 UNL1     0.2102
@<TRIPOS>BOND
     1     1     2    1
     2     1     6    1
     3     2     3    1
     4     3     4    1
     5     3    29    1
     6     3    33    1
     7     4     5    1
     8     5     6    1
     9     5     7    1
    10     5    35    1
    11     7     8    1
    12     8     9   ar
    13     8    13   ar
    14     9    10   ar
    15     9    36    1
    16    10    11   ar
    17    10    26    1
    18    11    12   ar
    19    11    14    1
    20    12    13   ar
    21    12    17    1
    22    13    37    1
    23    14    15    1
    24    14    25    2
    25    15    16    1
    26    15    38    1
    27    15    39    1
    28    16    17    1
    29    16    18    1
    30    16    40    1
    31    18    19   ar
    32    18    23   ar
    33    19    20   ar
    34    19    41    1
    35    20    21   ar
    36    20    42    1
    37    21    22   ar
    38    21    24    1
    39    22    23   ar
    40    22    43    1
    41    23    44    1
    42    24    45    1
    43    26    46    1
    44    27    47    1
    45    28    48    1
    46    29    49    1
    47    30    50    1
    48     1    31    1
    49     1    27    1
    50     2    32    1
    51     2    28    1
    52     4    34    1
    53     4    30    1
