@<TRIPOS>MOLECULE
*****
 50 53 0 0 0
SMALL
GASTEIGER

@<TRIPOS>ATOM
     1 C         -0.664063   -1.142284   1.739256 C.3        1 UNL1     0.1889
     2 C         -0.555099   -0.923527   0.206216 C.3        1 UNL1     0.1342
     3 C         -1.901711   -0.874184   -0.5318 C.3        1 UNL1     0.1174
     4 C         -2.946784   -1.812547   0.076817 C.3        1 UNL1     0.1456
     5 C         -3.014682   -1.704592   1.611124 C.3        1 UNL1     0.2326
     6 O         -1.732166   -1.970685   2.174344 O.3        1 UNL1     -0.3076
     7 O         -3.590752   -0.46957   2.073926 O.3        1 UNL1     -0.4605
     8 C         -4.285938   0.265968   1.130938 C.ar        1 UNL1     0.1310
     9 C         -5.159043   1.322838   1.41025 C.ar        1 UNL1     0.0226
     10 C         -5.804772   2.019264   0.381694 C.ar        1 UNL1     0.1343
     11 C         -5.57442   1.690829   -0.953562 C.ar        1 UNL1     0.1007
     12 C         -4.736435   0.610758   -1.243408 C.ar        1 UNL1     0.1389
     13 C         -4.089333   -0.091039   -0.208917 C.ar        1 UNL1     0.0229
     14 C         -6.164655   2.447027   -2.082252 C.2        1 UNL1     0.1740
     15 C         -5.636157   2.100166   -3.443106 C.3        1 UNL1     0.0520
     16 C         -5.456692   0.590242   -3.519788 C.3        1 UNL1     0.1322
     17 O         -4.523941   0.133068   -2.515778 O.3        1 UNL1     -0.4828
     18 C         -6.775383   -0.185706   -3.560796 C.ar        1 UNL1     -0.0067
     19 C         -6.74859   -1.594469   -3.61447 C.ar        1 UNL1     -0.0516
     20 C         -7.934981   -2.332715   -3.700683 C.ar        1 UNL1     -0.0198
     21 C         -9.151457   -1.675171   -3.741326 C.ar        1 UNL1     0.1169
     22 C         -9.211912   -0.29026   -3.656447 C.ar        1 UNL1     -0.0198
     23 C         -8.026595   0.447366   -3.551626 C.ar        1 UNL1     -0.0516
     24 O         -10.28377   -2.425701   -3.863686 O.3        1 UNL1     -0.5068
     25 O         -6.974987   3.358215   -1.935335 O.2        1 UNL1     -0.2917
     26 O         -6.644895   3.039278   0.721326 O.3        1 UNL1     -0.5058
     27 O         -0.595656   0.06067   2.488262 O.3        1 UNL1     -0.3648
     28 O         0.202452   -2.010582   -0.356931 O.3        1 UNL1     -0.3841
     29 O         -2.367291   0.471884   -0.647845 O.3        1 UNL1     -0.3863
     30 O         -2.624672   -3.17471   -0.278775 O.3        1 UNL1     -0.3829
     31 H         0.230392   -1.698563   2.040228 H        1 UNL1     0.0937
     32 H         0.0   0.0   0.0 H        1 UNL1     0.0671
     33 H         -1.731625   -1.214002   -1.562971 H        1 UNL1     0.0649
     34 H         -3.934522   -1.596154   -0.345022 H        1 UNL1     0.0683
     35 H         -3.670628   -2.5333   1.905837 H        1 UNL1     0.1085
     36 H         -5.336742   1.662773   2.42464 H        1 UNL1     0.0691
     37 H         -3.442717   -0.928815   -0.460933 H        1 UNL1     0.0691
     38 H         -4.679578   2.61849   -3.568893 H        1 UNL1     0.0385
     39 H         -6.330237   2.473787   -4.203658 H        1 UNL1     0.0385
     40 H         -4.960866   0.371299   -4.475163 H        1 UNL1     0.0789
     41 H         -5.80606   -2.133765   -3.593335 H        1 UNL1     0.0623
     42 H         -7.900588   -3.418094   -3.753429 H        1 UNL1     0.0654
     43 H         -10.159945   0.234043   -3.672251 H        1 UNL1     0.0654
     44 H         -8.111652   1.527176   -3.476646 H        1 UNL1     0.0623
     45 H         -10.738219   -2.437313   -3.005748 H        1 UNL1     0.2921
     46 H         -7.330626   2.707195   1.322081 H        1 UNL1     0.2922
     47 H         -0.821214   0.816826   1.928609 H        1 UNL1     0.2126
     48 H         -0.335598   -2.81702   -0.239063 H        1 UNL1     0.2101
     49 H         -3.015205   0.658312   0.050185 H        1 UNL1     0.2100
     50 H         -2.896883   -3.315856   -1.209201 H        1 UNL1     0.2102
@<TRIPOS>BOND
     1     1     2    1
     2     1     6    1
     3     2     3    1
     4     3     4    1
     5     3    29    1
     6     3    33    1
     7     4     5    1
     8     5     6    1
     9     5     7    1
    10     5    35    1
    11     7     8    1
    12     8     9   ar
    13     8    13   ar
    14     9    10   ar
    15     9    36    1
    16    10    11   ar
    17    10    26    1
    18    11    12   ar
    19    11    14    1
    20    12    13   ar
    21    12    17    1
    22    13    37    1
    23    14    15    1
    24    14    25    2
    25    15    16    1
    26    15    38    1
    27    15    39    1
    28    16    17    1
    29    16    18    1
    30    16    40    1
    31    18    19   ar
    32    18    23   ar
    33    19    20   ar
    34    19    41    1
    35    20    21   ar
    36    20    42    1
    37    21    22   ar
    38    21    24    1
    39    22    23   ar
    40    22    43    1
    41    23    44    1
    42    24    45    1
    43    26    46    1
    44    27    47    1
    45    28    48    1
    46    29    49    1
    47    30    50    1
    48     1    31    1
    49     1    27    1
    50     2    32    1
    51     2    28    1
    52     4    34    1
    53     4    30    1
