@<TRIPOS>MOLECULE
*****
 50 53 0 0 0
SMALL
GASTEIGER

@<TRIPOS>ATOM
     1 C         0.00248   -1.101278   1.886262 C.3        1 UNL1     0.1889
     2 C         -0.261474   -1.002924   0.359634 C.3        1 UNL1     0.1342
     3 C         -1.702116   -1.327473   -0.064259 C.3        1 UNL1     0.1174
     4 C         -2.342208   -2.419664   0.796276 C.3        1 UNL1     0.1456
     5 C         -2.117841   -2.19177   2.302293 C.3        1 UNL1     0.2326
     6 O         -0.721583   -2.107746   2.578468 O.3        1 UNL1     -0.3076
     7 O         -2.867187   -1.083153   2.83217 O.3        1 UNL1     -0.4605
     8 C         -3.267988   -1.197521   4.151187 C.ar        1 UNL1     0.1310
     9 C         -3.849926   -2.332643   4.725772 C.ar        1 UNL1     0.0226
     10 C         -4.206863   -2.356538   6.079259 C.ar        1 UNL1     0.1343
     11 C         -3.968421   -1.253098   6.897431 C.ar        1 UNL1     0.1007
     12 C         -3.425555   -0.099323   6.325694 C.ar        1 UNL1     0.1389
     13 C         -3.069177   -0.074626   4.964145 C.ar        1 UNL1     0.0229
     14 C         -4.248443   -1.253591   8.35199 C.2        1 UNL1     0.1740
     15 C         -3.726253   -0.071208   9.114116 C.3        1 UNL1     0.0520
     16 C         -3.946549   1.179129   8.273827 C.3        1 UNL1     0.1322
     17 O         -3.248585   1.0791   7.012911 O.3        1 UNL1     -0.4828
     18 C         -5.416034   1.590373   8.154593 C.ar        1 UNL1     -0.0067
     19 C         -5.951048   1.887877   6.884371 C.ar        1 UNL1     -0.0516
     20 C         -7.277741   2.312737   6.745295 C.ar        1 UNL1     -0.0198
     21 C         -8.075675   2.450826   7.866928 C.ar        1 UNL1     0.1169
     22 C         -7.587427   2.133319   9.127738 C.ar        1 UNL1     -0.0198
     23 C         -6.266327   1.690746   9.265143 C.ar        1 UNL1     -0.0516
     24 O         -9.351063   2.903276   7.696413 O.3        1 UNL1     -0.5068
     25 O         -4.798224   -2.184758   8.93436 O.2        1 UNL1     -0.2917
     26 O         -4.771515   -3.494162   6.577821 O.3        1 UNL1     -0.5058
     27 O         -0.069096   0.148416   2.554042 O.3        1 UNL1     -0.3648
     28 O         0.603735   -1.935925   -0.313885 O.3        1 UNL1     -0.3841
     29 O         -2.492209   -0.138389   -0.12723 O.3        1 UNL1     -0.3863
     30 O         -1.781089   -3.699537   0.431916 O.3        1 UNL1     -0.3829
     31 H         1.046829   -1.410437   2.003881 H        1 UNL1     0.0937
     32 H         0.0   0.0   0.0 H        1 UNL1     0.0671
     33 H         -1.670397   -1.711543   -1.093435 H        1 UNL1     0.0649
     34 H         -3.417862   -2.472185   0.594755 H        1 UNL1     0.0683
     35 H         -2.479685   -3.117649   2.766724 H        1 UNL1     0.1085
     36 H         -4.009785   -3.24169   4.156388 H        1 UNL1     0.0691
     37 H         -2.649232   0.83626   4.542924 H        1 UNL1     0.0691
     38 H         -2.65997   -0.240518   9.298243 H        1 UNL1     0.0385
     39 H         -4.23575   -0.014614   10.082098 H        1 UNL1     0.0385
     40 H         -3.453485   2.010648   8.795348 H        1 UNL1     0.0789
     41 H         -5.342457   1.796209   5.98946 H        1 UNL1     0.0623
     42 H         -7.67511   2.55054   5.761649 H        1 UNL1     0.0654
     43 H         -8.208215   2.223465   10.011144 H        1 UNL1     0.0654
     44 H         -5.921205   1.441388   10.26392 H        1 UNL1     0.0623
     45 H         -9.311964   3.788209   7.298819 H        1 UNL1     0.2921
     46 H         -4.245553   -3.814672   7.327521 H        1 UNL1     0.2922
     47 H         0.543003   0.779371   2.150197 H        1 UNL1     0.2126
     48 H         1.519682   -1.663287   -0.11278 H        1 UNL1     0.2101
     49 H         -2.200624   0.412573   -0.871012 H        1 UNL1     0.2100
     50 H         -2.05112   -3.895948   -0.489072 H        1 UNL1     0.2102
@<TRIPOS>BOND
     1     1     2    1
     2     1     6    1
     3     2     3    1
     4     3     4    1
     5     3    29    1
     6     3    33    1
     7     4     5    1
     8     5     6    1
     9     5     7    1
    10     5    35    1
    11     7     8    1
    12     8     9   ar
    13     8    13   ar
    14     9    10   ar
    15     9    36    1
    16    10    11   ar
    17    10    26    1
    18    11    12   ar
    19    11    14    1
    20    12    13   ar
    21    12    17    1
    22    13    37    1
    23    14    15    1
    24    14    25    2
    25    15    16    1
    26    15    38    1
    27    15    39    1
    28    16    17    1
    29    16    18    1
    30    16    40    1
    31    18    19   ar
    32    18    23   ar
    33    19    20   ar
    34    19    41    1
    35    20    21   ar
    36    20    42    1
    37    21    22   ar
    38    21    24    1
    39    22    23   ar
    40    22    43    1
    41    23    44    1
    42    24    45    1
    43    26    46    1
    44    27    47    1
    45    28    48    1
    46    29    49    1
    47    30    50    1
    48     1    31    1
    49     1    27    1
    50     2    32    1
    51     2    28    1
    52     4    34    1
    53     4    30    1
