@<TRIPOS>MOLECULE
*****
 50 53 0 0 0
SMALL
GASTEIGER

@<TRIPOS>ATOM
     1 C         -1.441547   -1.321221   0.973202 C.3        1 UNL1     0.1889
     2 C         -0.874759   -0.600263   -0.27936 C.3        1 UNL1     0.1342
     3 C         -1.883195   0.295717   -1.014712 C.3        1 UNL1     0.1174
     4 C         -3.308022   -0.262728   -0.981186 C.3        1 UNL1     0.1456
     5 C         -3.72442   -0.733769   0.424195 C.3        1 UNL1     0.2326
     6 O         -2.804468   -1.713172   0.900986 O.3        1 UNL1     -0.3076
     7 O         -3.932721   0.346205   1.352412 O.3        1 UNL1     -0.4605
     8 C         -4.889863   0.131212   2.3277 C.ar        1 UNL1     0.1310
     9 C         -6.163005   -0.406051   2.109164 C.ar        1 UNL1     0.0226
     10 C         -7.057579   -0.601551   3.168134 C.ar        1 UNL1     0.1343
     11 C         -6.691537   -0.286343   4.475994 C.ar        1 UNL1     0.1007
     12 C         -5.438124   0.288972   4.701276 C.ar        1 UNL1     0.1389
     13 C         -4.539809   0.4879   3.635964 C.ar        1 UNL1     0.0229
     14 C         -7.56537   -0.550117   5.64261 C.2        1 UNL1     0.1740
     15 C         -6.928424   -0.357879   6.987561 C.3        1 UNL1     0.0520
     16 C         -6.049532   0.884033   6.931339 C.3        1 UNL1     0.1322
     17 O         -5.016844   0.736594   5.931896 O.3        1 UNL1     -0.4828
     18 C         -6.837611   2.19303   6.840891 C.ar        1 UNL1     -0.0067
     19 C         -6.480864   3.150441   5.869134 C.ar        1 UNL1     -0.0516
     20 C         -7.150033   4.377612   5.790234 C.ar        1 UNL1     -0.0198
     21 C         -8.17048   4.661718   6.680066 C.ar        1 UNL1     0.1169
     22 C         -8.566887   3.725752   7.626463 C.ar        1 UNL1     -0.0198
     23 C         -7.91016   2.491144   7.693628 C.ar        1 UNL1     -0.0516
     24 O         -8.773909   5.882142   6.597356 O.3        1 UNL1     -0.5068
     25 O         -8.71313   -0.976271   5.545013 O.2        1 UNL1     -0.2917
     26 O         -8.284456   -1.128509   2.887647 O.3        1 UNL1     -0.5058
     27 O         -1.153009   -0.651289   2.190052 O.3        1 UNL1     -0.3648
     28 O         -0.425614   -1.597595   -1.215471 O.3        1 UNL1     -0.3841
     29 O         -1.805045   1.641754   -0.541204 O.3        1 UNL1     -0.3863
     30 O         -3.400446   -1.38009   -1.891487 O.3        1 UNL1     -0.3829
     31 H         -0.905429   -2.272985   1.055682 H        1 UNL1     0.0937
     32 H         0.0   0.0   0.0 H        1 UNL1     0.0671
     33 H         -1.584093   0.340263   -2.07125 H        1 UNL1     0.0649
     34 H         -4.015596   0.496386   -1.332594 H        1 UNL1     0.0683
     35 H         -4.679793   -1.247359   0.258772 H        1 UNL1     0.1085
     36 H         -6.486626   -0.723238   1.123881 H        1 UNL1     0.0691
     37 H         -3.570409   0.938565   3.837603 H        1 UNL1     0.0691
     38 H         -6.334687   -1.252459   7.203729 H        1 UNL1     0.0385
     39 H         -7.712758   -0.275987   7.747753 H        1 UNL1     0.0385
     40 H         -5.50444   0.938209   7.883421 H        1 UNL1     0.0789
     41 H         -5.677251   2.955117   5.165071 H        1 UNL1     0.0623
     42 H         -6.85774   5.112431   5.044166 H        1 UNL1     0.0654
     43 H         -9.374743   3.931945   8.318389 H        1 UNL1     0.0654
     44 H         -8.253012   1.779446   8.438466 H        1 UNL1     0.0623
     45 H         -8.102744   6.567065   6.749456 H        1 UNL1     0.2921
     46 H         -8.419162   -1.932557   3.41374 H        1 UNL1     0.2922
     47 H         -0.198749   -0.522634   2.283308 H        1 UNL1     0.2126
     48 H         0.28156   -2.101903   -0.769028 H        1 UNL1     0.2101
     49 H         -0.965678   2.041358   -0.819724 H        1 UNL1     0.2100
     50 H         -3.270916   -1.039622   -2.800892 H        1 UNL1     0.2102
@<TRIPOS>BOND
     1     1     2    1
     2     1     6    1
     3     2     3    1
     4     3     4    1
     5     3    29    1
     6     3    33    1
     7     4     5    1
     8     5     6    1
     9     5     7    1
    10     5    35    1
    11     7     8    1
    12     8     9   ar
    13     8    13   ar
    14     9    10   ar
    15     9    36    1
    16    10    11   ar
    17    10    26    1
    18    11    12   ar
    19    11    14    1
    20    12    13   ar
    21    12    17    1
    22    13    37    1
    23    14    15    1
    24    14    25    2
    25    15    16    1
    26    15    38    1
    27    15    39    1
    28    16    17    1
    29    16    18    1
    30    16    40    1
    31    18    19   ar
    32    18    23   ar
    33    19    20   ar
    34    19    41    1
    35    20    21   ar
    36    20    42    1
    37    21    22   ar
    38    21    24    1
    39    22    23   ar
    40    22    43    1
    41    23    44    1
    42    24    45    1
    43    26    46    1
    44    27    47    1
    45    28    48    1
    46    29    49    1
    47    30    50    1
    48     1    31    1
    49     1    27    1
    50     2    32    1
    51     2    28    1
    52     4    34    1
    53     4    30    1
