@<TRIPOS>MOLECULE
*****
 50 53 0 0 0
SMALL
GASTEIGER

@<TRIPOS>ATOM
     1 C         -1.445652   0.446271   -1.575353 C.3        1 UNL1     0.1889
     2 C         -0.788651   0.736189   -0.19904 C.3        1 UNL1     0.1342
     3 C         -1.765794   0.756653   0.986387 C.3        1 UNL1     0.1174
     4 C         -3.139396   1.320012   0.613614 C.3        1 UNL1     0.1456
     5 C         -3.684095   0.72723   -0.698741 C.3        1 UNL1     0.2326
     6 O         -2.757662   0.957913   -1.757691 O.3        1 UNL1     -0.3076
     7 O         -4.080398   -0.651568   -0.583931 O.3        1 UNL1     -0.4605
     8 C         -5.321793   -0.88042   -0.018163 C.ar        1 UNL1     0.1310
     9 C         -6.158969   0.101076   0.523227 C.ar        1 UNL1     0.0226
     10 C         -7.409231   -0.229477   1.059401 C.ar        1 UNL1     0.1343
     11 C         -7.863209   -1.54764   1.045592 C.ar        1 UNL1     0.1007
     12 C         -7.018961   -2.542312   0.544934 C.ar        1 UNL1     0.1389
     13 C         -5.760775   -2.21005   0.008277 C.ar        1 UNL1     0.0229
     14 C         -9.209488   -1.940738   1.522204 C.2        1 UNL1     0.1740
     15 C         -9.614686   -3.355395   1.22876 C.3        1 UNL1     0.0520
     16 C         -8.409322   -4.258123   1.452672 C.3        1 UNL1     0.1322
     17 O         -7.319636   -3.884162   0.581003 O.3        1 UNL1     -0.4828
     18 C         -8.019849   -4.412113   2.924855 C.ar        1 UNL1     -0.0067
     19 C         -9.010632   -4.74143   3.872542 C.ar        1 UNL1     -0.0516
     20 C         -8.697512   -4.843337   5.233253 C.ar        1 UNL1     -0.0198
     21 C         -7.401771   -4.61159   5.658902 C.ar        1 UNL1     0.1169
     22 C         -6.39734   -4.318346   4.745686 C.ar        1 UNL1     -0.0198
     23 C         -6.706397   -4.234508   3.38278 C.ar        1 UNL1     -0.0516
     24 O         -7.142299   -4.682682   6.996071 O.3        1 UNL1     -0.5068
     25 O         -9.993823   -1.158711   2.052993 O.2        1 UNL1     -0.2917
     26 O         -8.177099   0.774594   1.573019 O.3        1 UNL1     -0.5058
     27 O         -1.354088   -0.913279   -1.970355 O.3        1 UNL1     -0.3648
     28 O         -0.15903   2.029579   -0.257578 O.3        1 UNL1     -0.3841
     29 O         -1.844011   -0.530939   1.601304 O.3        1 UNL1     -0.3863
     30 O         -3.040231   2.753558   0.469381 O.3        1 UNL1     -0.3829
     31 H         -0.854417   0.984961   -2.323908 H        1 UNL1     0.0937
     32 H         0.0   0.0   0.0 H        1 UNL1     0.0671
     33 H         -1.347266   1.421882   1.754518 H        1 UNL1     0.0649
     34 H         -3.854205   1.127811   1.421393 H        1 UNL1     0.0683
     35 H         -4.572511   1.333942   -0.914371 H        1 UNL1     0.1085
     36 H         -5.887565   1.151007   0.512992 H        1 UNL1     0.0691
     37 H         -5.121878   -3.003101   -0.374309 H        1 UNL1     0.0691
     38 H         -9.949364   -3.39465   0.186658 H        1 UNL1     0.0385
     39 H         -10.460167   -3.626958   1.870005 H        1 UNL1     0.0385
     40 H         -8.693371   -5.265776   1.1203 H        1 UNL1     0.0789
     41 H         -10.037005   -4.919079   3.564891 H        1 UNL1     0.0623
     42 H         -9.47281   -5.08626   5.955689 H        1 UNL1     0.0654
     43 H         -5.376258   -4.149813   5.066466 H        1 UNL1     0.0654
     44 H         -5.894821   -4.013873   2.696114 H        1 UNL1     0.0623
     45 H         -7.959164   -4.939519   7.453763 H        1 UNL1     0.2921
     46 H         -7.700964   1.61667   1.49808 H        1 UNL1     0.2922
     47 H         -0.459152   -1.112773   -2.27882 H        1 UNL1     0.2126
     48 H         0.733543   1.889621   -0.62833 H        1 UNL1     0.2101
     49 H         -2.528805   -0.52721   2.288936 H        1 UNL1     0.2100
     50 H         -2.484675   3.092545   1.201609 H        1 UNL1     0.2102
@<TRIPOS>BOND
     1     1     2    1
     2     1     6    1
     3     2     3    1
     4     3     4    1
     5     3    29    1
     6     3    33    1
     7     4     5    1
     8     5     6    1
     9     5     7    1
    10     5    35    1
    11     7     8    1
    12     8     9   ar
    13     8    13   ar
    14     9    10   ar
    15     9    36    1
    16    10    11   ar
    17    10    26    1
    18    11    12   ar
    19    11    14    1
    20    12    13   ar
    21    12    17    1
    22    13    37    1
    23    14    15    1
    24    14    25    2
    25    15    16    1
    26    15    38    1
    27    15    39    1
    28    16    17    1
    29    16    18    1
    30    16    40    1
    31    18    19   ar
    32    18    23   ar
    33    19    20   ar
    34    19    41    1
    35    20    21   ar
    36    20    42    1
    37    21    22   ar
    38    21    24    1
    39    22    23   ar
    40    22    43    1
    41    23    44    1
    42    24    45    1
    43    26    46    1
    44    27    47    1
    45    28    48    1
    46    29    49    1
    47    30    50    1
    48     1    31    1
    49     1    27    1
    50     2    32    1
    51     2    28    1
    52     4    34    1
    53     4    30    1
