@<TRIPOS>MOLECULE
*****
 50 53 0 0 0
SMALL
GASTEIGER

@<TRIPOS>ATOM
     1 C         -0.329088   -1.355527   1.680789 C.3        1 UNL1     0.1889
     2 C         -0.465352   -0.976766   0.181485 C.3        1 UNL1     0.1342
     3 C         -1.908654   -0.949687   -0.344454 C.3        1 UNL1     0.1174
     4 C         -2.795959   -2.016496   0.301862 C.3        1 UNL1     0.1456
     5 C         -2.637138   -2.06823   1.832373 C.3        1 UNL1     0.2326
     6 O         -1.271457   -2.297432   2.171861 O.3        1 UNL1     -0.3076
     7 O         -3.204426   -0.930123   2.50633 O.3        1 UNL1     -0.4605
     8 C         -3.719384   -1.167394   3.768094 C.ar        1 UNL1     0.1310
     9 C         -4.545499   -2.241079   4.117432 C.ar        1 UNL1     0.0226
     10 C         -5.003228   -2.404782   5.430287 C.ar        1 UNL1     0.1343
     11 C         -4.626141   -1.511102   6.431777 C.ar        1 UNL1     0.1007
     12 C         -3.835025   -0.412112   6.086611 C.ar        1 UNL1     0.1389
     13 C         -3.377076   -0.246266   4.765926 C.ar        1 UNL1     0.0229
     14 C         -5.01191   -1.683044   7.851556 C.2        1 UNL1     0.1740
     15 C         -4.337876   -0.760091   8.823866 C.3        1 UNL1     0.0520
     16 C         -4.255572   0.624477   8.196048 C.3        1 UNL1     0.1322
     17 O         -3.494098   0.586654   6.968938 O.3        1 UNL1     -0.4828
     18 C         -5.60877   1.330475   8.081397 C.ar        1 UNL1     -0.0067
     19 C         -5.972284   1.937031   6.861496 C.ar        1 UNL1     -0.0516
     20 C         -7.181487   2.631474   6.736836 C.ar        1 UNL1     -0.0198
     21 C         -8.030529   2.73256   7.824373 C.ar        1 UNL1     0.1169
     22 C         -7.715725   2.117455   9.029106 C.ar        1 UNL1     -0.0198
     23 C         -6.515132   1.407283   9.148638 C.ar        1 UNL1     -0.0516
     24 O         -9.181784   3.448872   7.676355 O.3        1 UNL1     -0.5068
     25 O         -5.769006   -2.566853   8.244205 O.2        1 UNL1     -0.2917
     26 O         -5.807056   -3.47245   5.705115 O.3        1 UNL1     -0.5058
     27 O         -0.215278   -0.232042   2.539635 O.3        1 UNL1     -0.3648
     28 O         0.25766   -1.945024   -0.601099 O.3        1 UNL1     -0.3841
     29 O         -2.460532   0.364607   -0.243493 O.3        1 UNL1     -0.3863
     30 O         -2.456048   -3.30964   -0.243966 O.3        1 UNL1     -0.3829
     31 H         0.630102   -1.874038   1.786527 H        1 UNL1     0.0937
     32 H         0.0   0.0   0.0 H        1 UNL1     0.0671
     33 H         -1.877706   -1.171278   -1.4204 H        1 UNL1     0.0649
     34 H         -3.846582   -1.829799   0.053394 H        1 UNL1     0.0683
     35 H         -3.193921   -2.966971   2.125862 H        1 UNL1     0.1085
     36 H         -4.828348   -3.000825   3.397084 H        1 UNL1     0.0691
     37 H         -2.763274   0.618371   4.522733 H        1 UNL1     0.0691
     38 H         -3.339321   -1.16262   9.024828 H        1 UNL1     0.0385
     39 H         -4.900445   -0.755786   9.763693 H        1 UNL1     0.0385
     40 H         -3.65721   1.251025   8.871267 H        1 UNL1     0.0789
     41 H         -5.318917   1.879767   5.995769 H        1 UNL1     0.0623
     42 H         -7.445029   3.105024   5.794335 H        1 UNL1     0.0654
     43 H         -8.380364   2.177585   9.882658 H        1 UNL1     0.0654
     44 H         -6.306146   0.930286   10.101341 H        1 UNL1     0.0623
     45 H         -8.946642   4.369906   7.478561 H        1 UNL1     0.2921
     46 H         -5.410042   -4.002193   6.414456 H        1 UNL1     0.2922
     47 H         0.515661   0.334209   2.255121 H        1 UNL1     0.2126
     48 H         1.198479   -1.858028   -0.354068 H        1 UNL1     0.2101
     49 H         -2.028318   0.953964   -0.881963 H        1 UNL1     0.2100
     50 H         -2.699121   -3.309684   -1.192981 H        1 UNL1     0.2102
@<TRIPOS>BOND
     1     1     2    1
     2     1     6    1
     3     2     3    1
     4     3     4    1
     5     3    29    1
     6     3    33    1
     7     4     5    1
     8     5     6    1
     9     5     7    1
    10     5    35    1
    11     7     8    1
    12     8     9   ar
    13     8    13   ar
    14     9    10   ar
    15     9    36    1
    16    10    11   ar
    17    10    26    1
    18    11    12   ar
    19    11    14    1
    20    12    13   ar
    21    12    17    1
    22    13    37    1
    23    14    15    1
    24    14    25    2
    25    15    16    1
    26    15    38    1
    27    15    39    1
    28    16    17    1
    29    16    18    1
    30    16    40    1
    31    18    19   ar
    32    18    23   ar
    33    19    20   ar
    34    19    41    1
    35    20    21   ar
    36    20    42    1
    37    21    22   ar
    38    21    24    1
    39    22    23   ar
    40    22    43    1
    41    23    44    1
    42    24    45    1
    43    26    46    1
    44    27    47    1
    45    28    48    1
    46    29    49    1
    47    30    50    1
    48     1    31    1
    49     1    27    1
    50     2    32    1
    51     2    28    1
    52     4    34    1
    53     4    30    1
