@<TRIPOS>MOLECULE
*****
 50 53 0 0 0
SMALL
GASTEIGER

@<TRIPOS>ATOM
     1 C         -0.615541   -1.468391   1.49524 C.3        1 UNL1     0.1889
     2 C         -0.602936   -0.91544   0.044714 C.3        1 UNL1     0.1342
     3 C         -1.992668   -0.62943   -0.544615 C.3        1 UNL1     0.1174
     4 C         -3.054866   -1.624098   -0.069759 C.3        1 UNL1     0.1456
     5 C         -3.003285   -1.861701   1.45052 C.3        1 UNL1     0.2326
     6 O         -1.705432   -2.315713   1.827772 O.3        1 UNL1     -0.3076
     7 O         -3.454905   -0.734176   2.222563 O.3        1 UNL1     -0.4605
     8 C         -4.077197   -1.03082   3.421847 C.ar        1 UNL1     0.1310
     9 C         -5.053219   -2.016022   3.606395 C.ar        1 UNL1     0.0226
     10 C         -5.612931   -2.253031   4.867526 C.ar        1 UNL1     0.1343
     11 C         -5.192551   -1.526001   5.980427 C.ar        1 UNL1     0.1007
     12 C         -4.248254   -0.511651   5.801037 C.ar        1 UNL1     0.1389
     13 C         -3.687541   -0.271746   4.532385 C.ar        1 UNL1     0.0229
     14 C         -5.689074   -1.791762   7.35046 C.2        1 UNL1     0.1740
     15 C         -4.969158   -1.072181   8.452945 C.3        1 UNL1     0.0520
     16 C         -4.671951   0.346904   7.988379 C.3        1 UNL1     0.1322
     17 O         -3.842609   0.336126   6.805524 O.3        1 UNL1     -0.4828
     18 C         -5.914866   1.233983   7.883613 C.ar        1 UNL1     -0.0067
     19 C         -5.834095   2.460484   7.192682 C.ar        1 UNL1     -0.0516
     20 C         -6.938769   3.317323   7.118628 C.ar        1 UNL1     -0.0198
     21 C         -8.124987   2.963276   7.736176 C.ar        1 UNL1     0.1169
     22 C         -8.245452   1.746889   8.395517 C.ar        1 UNL1     -0.0198
     23 C         -7.146464   0.881521   8.453991 C.ar        1 UNL1     -0.0516
     24 O         -9.167912   3.840183   7.675013 O.3        1 UNL1     -0.5068
     25 O         -6.575668   -2.603434   7.602699 O.2        1 UNL1     -0.2917
     26 O         -6.561253   -3.227521   4.979946 O.3        1 UNL1     -0.5058
     27 O         -0.407514   -0.470851   2.482371 O.3        1 UNL1     -0.3648
     28 O         0.03246   -1.886018   -0.807904 O.3        1 UNL1     -0.3841
     29 O         -2.368517   0.730871   -0.320001 O.3        1 UNL1     -0.3863
     30 O         -2.857146   -2.886013   -0.743678 O.3        1 UNL1     -0.3829
     31 H         0.256572   -2.124908   1.587344 H        1 UNL1     0.0937
     32 H         0.0   0.0   0.0 H        1 UNL1     0.0671
     33 H         -1.922537   -0.736331   -1.636116 H        1 UNL1     0.0649
     34 H         -4.052735   -1.265981   -0.346185 H        1 UNL1     0.0683
     35 H         -3.693373   -2.699522   1.610872 H        1 UNL1     0.1085
     36 H         -5.381839   -2.652695   2.792284 H        1 UNL1     0.0691
     37 H         -2.954994   0.524497   4.41896 H        1 UNL1     0.0691
     38 H         -4.044666   -1.622101   8.658931 H        1 UNL1     0.0385
     39 H         -5.587026   -1.090971   9.357193 H        1 UNL1     0.0385
     40 H         -4.044864   0.815169   8.7591 H        1 UNL1     0.0789
     41 H         -4.911535   2.765428   6.707353 H        1 UNL1     0.0623
     42 H         -6.860377   4.265802   6.59303 H        1 UNL1     0.0654
     43 H         -9.174232   1.452966   8.869741 H        1 UNL1     0.0654
     44 H         -7.27929   -0.065398   8.968331 H        1 UNL1     0.0623
     45 H         -8.923212   4.642368   8.164236 H        1 UNL1     0.2921
     46 H         -6.29204   -3.863887   5.661102 H        1 UNL1     0.2922
     47 H         0.409591   0.014279   2.301131 H        1 UNL1     0.2126
     48 H         0.986029   -1.860443   -0.59866 H        1 UNL1     0.2101
     49 H         -1.952502   1.302303   -0.984976 H        1 UNL1     0.2100
     50 H         -3.058358   -2.755351   -1.693496 H        1 UNL1     0.2102
@<TRIPOS>BOND
     1     1     2    1
     2     1     6    1
     3     2     3    1
     4     3     4    1
     5     3    29    1
     6     3    33    1
     7     4     5    1
     8     5     6    1
     9     5     7    1
    10     5    35    1
    11     7     8    1
    12     8     9   ar
    13     8    13   ar
    14     9    10   ar
    15     9    36    1
    16    10    11   ar
    17    10    26    1
    18    11    12   ar
    19    11    14    1
    20    12    13   ar
    21    12    17    1
    22    13    37    1
    23    14    15    1
    24    14    25    2
    25    15    16    1
    26    15    38    1
    27    15    39    1
    28    16    17    1
    29    16    18    1
    30    16    40    1
    31    18    19   ar
    32    18    23   ar
    33    19    20   ar
    34    19    41    1
    35    20    21   ar
    36    20    42    1
    37    21    22   ar
    38    21    24    1
    39    22    23   ar
    40    22    43    1
    41    23    44    1
    42    24    45    1
    43    26    46    1
    44    27    47    1
    45    28    48    1
    46    29    49    1
    47    30    50    1
    48     1    31    1
    49     1    27    1
    50     2    32    1
    51     2    28    1
    52     4    34    1
    53     4    30    1
