@<TRIPOS>MOLECULE
*****
 50 53 0 0 0
SMALL
GASTEIGER

@<TRIPOS>ATOM
     1 C         -0.345518   -1.336301   1.692844 C.3        1 UNL1     0.1889
     2 C         -0.46906   -0.973667   0.188459 C.3        1 UNL1     0.1342
     3 C         -1.908099   -0.949085   -0.349152 C.3        1 UNL1     0.1174
     4 C         -2.802977   -2.006747   0.30174 C.3        1 UNL1     0.1456
     5 C         -2.656358   -2.042084   1.833934 C.3        1 UNL1     0.2326
     6 O         -1.29394   -2.270642   2.186705 O.3        1 UNL1     -0.3076
     7 O         -3.226275   -0.89539   2.490903 O.3        1 UNL1     -0.4605
     8 C         -3.741541   -1.115256   3.75569 C.ar        1 UNL1     0.1310
     9 C         -4.565775   -2.185351   4.120156 C.ar        1 UNL1     0.0226
     10 C         -5.023987   -2.330801   5.43499 C.ar        1 UNL1     0.1343
     11 C         -4.649255   -1.421886   6.42357 C.ar        1 UNL1     0.1007
     12 C         -3.86007   -0.326497   6.062886 C.ar        1 UNL1     0.1389
     13 C         -3.401638   -0.179018   4.740192 C.ar        1 UNL1     0.0229
     14 C         -5.035555   -1.573875   7.845479 C.2        1 UNL1     0.1740
     15 C         -4.363915   -0.635534   8.804627 C.3        1 UNL1     0.0520
     16 C         -4.283925   0.739896   8.156747 C.3        1 UNL1     0.1322
     17 O         -3.521629   0.685686   6.930763 O.3        1 UNL1     -0.4828
     18 C         -5.638426   1.441499   8.031031 C.ar        1 UNL1     -0.0067
     19 C         -6.002375   2.029502   6.802207 C.ar        1 UNL1     -0.0516
     20 C         -7.212853   2.719687   6.666736 C.ar        1 UNL1     -0.0198
     21 C         -8.062755   2.834948   7.752189 C.ar        1 UNL1     0.1169
     22 C         -7.74749   2.238082   8.965942 C.ar        1 UNL1     -0.0198
     23 C         -6.545588   1.532078   9.09651 C.ar        1 UNL1     -0.0516
     24 O         -9.215312   3.546774   7.593077 O.3        1 UNL1     -0.5068
     25 O         -5.791168   -2.453348   8.250524 O.2        1 UNL1     -0.2917
     26 O         -5.825902   -3.395922   5.72488 O.3        1 UNL1     -0.5058
     27 O         -0.235853   -0.203743   2.540235 O.3        1 UNL1     -0.3648
     28 O         0.257831   -1.952064   -0.57775 O.3        1 UNL1     -0.3841
     29 O         -2.457672   0.367479   -0.266931 O.3        1 UNL1     -0.3863
     30 O         -2.461805   -3.306553   -0.227217 O.3        1 UNL1     -0.3829
     31 H         0.611588   -1.855789   1.811831 H        1 UNL1     0.0937
     32 H         0.0   0.0   0.0 H        1 UNL1     0.0671
     33 H         -1.869183   -1.182509   -1.422334 H        1 UNL1     0.0649
     34 H         -3.851166   -1.820408   0.042938 H        1 UNL1     0.0683
     35 H         -3.217547   -2.936299   2.13281 H        1 UNL1     0.1085
     36 H         -4.846703   -2.956066   3.410792 H        1 UNL1     0.0691
     37 H         -2.789373   0.683183   4.484782 H        1 UNL1     0.0691
     38 H         -3.364702   -1.033137   9.012017 H        1 UNL1     0.0385
     39 H         -4.927066   -0.618635   9.743964 H        1 UNL1     0.0385
     40 H         -3.687198   1.377387   8.823112 H        1 UNL1     0.0789
     41 H         -5.348368   1.960907   5.937788 H        1 UNL1     0.0623
     42 H         -7.47674   3.178935   5.71728 H        1 UNL1     0.0654
     43 H         -8.412765   2.309342   9.818139 H        1 UNL1     0.0654
     44 H         -6.336255   1.069424   10.056186 H        1 UNL1     0.0623
     45 H         -8.982066   4.460012   7.360034 H        1 UNL1     0.2921
     46 H         -5.42829   -3.914494   6.442097 H        1 UNL1     0.2922
     47 H         0.508873   0.349177   2.265421 H        1 UNL1     0.2126
     48 H         1.193548   -1.879984   -0.307621 H        1 UNL1     0.2101
     49 H         -2.019053   0.948834   -0.908362 H        1 UNL1     0.2100
     50 H         -2.697382   -3.316436   -1.178069 H        1 UNL1     0.2102
@<TRIPOS>BOND
     1     1     2    1
     2     1     6    1
     3     2     3    1
     4     3     4    1
     5     3    29    1
     6     3    33    1
     7     4     5    1
     8     5     6    1
     9     5     7    1
    10     5    35    1
    11     7     8    1
    12     8     9   ar
    13     8    13   ar
    14     9    10   ar
    15     9    36    1
    16    10    11   ar
    17    10    26    1
    18    11    12   ar
    19    11    14    1
    20    12    13   ar
    21    12    17    1
    22    13    37    1
    23    14    15    1
    24    14    25    2
    25    15    16    1
    26    15    38    1
    27    15    39    1
    28    16    17    1
    29    16    18    1
    30    16    40    1
    31    18    19   ar
    32    18    23   ar
    33    19    20   ar
    34    19    41    1
    35    20    21   ar
    36    20    42    1
    37    21    22   ar
    38    21    24    1
    39    22    23   ar
    40    22    43    1
    41    23    44    1
    42    24    45    1
    43    26    46    1
    44    27    47    1
    45    28    48    1
    46    29    49    1
    47    30    50    1
    48     1    31    1
    49     1    27    1
    50     2    32    1
    51     2    28    1
    52     4    34    1
    53     4    30    1
