@<TRIPOS>MOLECULE
*****
 50 53 0 0 0
SMALL
GASTEIGER

@<TRIPOS>ATOM
     1 C         0.004199   -1.099664   1.887201 C.3        1 UNL1     0.1889
     2 C         -0.26029   -1.002898   0.360563 C.3        1 UNL1     0.1342
     3 C         -1.7007   -1.329364   -0.062646 C.3        1 UNL1     0.1174
     4 C         -2.33937   -2.42151   0.799001 C.3        1 UNL1     0.1456
     5 C         -2.114826   -2.192089   2.304759 C.3        1 UNL1     0.2326
     6 O         -0.718582   -2.106322   2.580469 O.3        1 UNL1     -0.3076
     7 O         -2.86522   -1.083829   2.833902 O.3        1 UNL1     -0.4605
     8 C         -3.265526   -1.197504   4.153129 C.ar        1 UNL1     0.1310
     9 C         -3.846078   -2.332762   4.728846 C.ar        1 UNL1     0.0226
     10 C         -4.202608   -2.355887   6.082453 C.ar        1 UNL1     0.1343
     11 C         -3.965127   -1.251493   6.899617 C.ar        1 UNL1     0.1007
     12 C         -3.423668   -0.097621   6.326742 C.ar        1 UNL1     0.1389
     13 C         -3.067699   -0.073701   4.965072 C.ar        1 UNL1     0.0229
     14 C         -4.24474   -1.251047   8.354254 C.2        1 UNL1     0.1740
     15 C         -3.723612   -0.067451   9.115224 C.3        1 UNL1     0.0520
     16 C         -3.945494   1.18193   8.273931 C.3        1 UNL1     0.1322
     17 O         -3.247777   1.081578   7.012903 O.3        1 UNL1     -0.4828
     18 C         -5.415456   1.591486   8.15476 C.ar        1 UNL1     -0.0067
     19 C         -5.951148   1.887328   6.884435 C.ar        1 UNL1     -0.0516
     20 C         -7.278338   2.310637   6.745371 C.ar        1 UNL1     -0.0198
     21 C         -8.076105   2.448822   7.867111 C.ar        1 UNL1     0.1169
     22 C         -7.58716   2.132918   9.128054 C.ar        1 UNL1     -0.0198
     23 C         -6.265545   1.691889   9.265463 C.ar        1 UNL1     -0.0516
     24 O         -9.352029   2.899749   7.696569 O.3        1 UNL1     -0.5068
     25 O         -4.793351   -2.182309   8.937573 O.2        1 UNL1     -0.2917
     26 O         -4.765891   -3.493695   6.582145 O.3        1 UNL1     -0.5058
     27 O         -0.068538   0.150521   2.553934 O.3        1 UNL1     -0.3648
     28 O         0.605737   -1.93554   -0.312403 O.3        1 UNL1     -0.3841
     29 O         -2.492094   -0.141188   -0.126409 O.3        1 UNL1     -0.3863
     30 O         -1.776973   -3.701088   0.435574 O.3        1 UNL1     -0.3829
     31 H         1.048915   -1.407596   2.004789 H        1 UNL1     0.0937
     32 H         0.0   0.0   0.0 H        1 UNL1     0.0671
     33 H         -1.668856   -1.714277   -1.091503 H        1 UNL1     0.0649
     34 H         -3.415024   -2.475364   0.597828 H        1 UNL1     0.0683
     35 H         -2.47554   -3.117961   2.770082 H        1 UNL1     0.1085
     36 H         -4.005115   -3.242468   4.160283 H        1 UNL1     0.0691
     37 H         -2.648856   0.837277   4.542956 H        1 UNL1     0.0691
     38 H         -2.657096   -0.235452   9.299194 H        1 UNL1     0.0385
     39 H         -4.232898   -0.01058   10.0833 H        1 UNL1     0.0385
     40 H         -3.453182   2.014426   8.794602 H        1 UNL1     0.0789
     41 H         -5.34271   1.795554   5.989431 H        1 UNL1     0.0623
     42 H         -7.676239   2.547172   5.761635 H        1 UNL1     0.0654
     43 H         -8.207797   2.223149   10.011557 H        1 UNL1     0.0654
     44 H         -5.919873   1.443757   10.264356 H        1 UNL1     0.0623
     45 H         -9.313996   3.784385   7.298209 H        1 UNL1     0.2921
     46 H         -4.23947   -3.8129   7.332079 H        1 UNL1     0.2922
     47 H         0.542766   0.781791   2.149378 H        1 UNL1     0.2126
     48 H         1.521445   -1.661741   -0.111789 H        1 UNL1     0.2101
     49 H         -2.201313   0.409454   -0.870744 H        1 UNL1     0.2100
     50 H         -2.047051   -3.898576   -0.48517 H        1 UNL1     0.2102
@<TRIPOS>BOND
     1     1     2    1
     2     1     6    1
     3     2     3    1
     4     3     4    1
     5     3    29    1
     6     3    33    1
     7     4     5    1
     8     5     6    1
     9     5     7    1
    10     5    35    1
    11     7     8    1
    12     8     9   ar
    13     8    13   ar
    14     9    10   ar
    15     9    36    1
    16    10    11   ar
    17    10    26    1
    18    11    12   ar
    19    11    14    1
    20    12    13   ar
    21    12    17    1
    22    13    37    1
    23    14    15    1
    24    14    25    2
    25    15    16    1
    26    15    38    1
    27    15    39    1
    28    16    17    1
    29    16    18    1
    30    16    40    1
    31    18    19   ar
    32    18    23   ar
    33    19    20   ar
    34    19    41    1
    35    20    21   ar
    36    20    42    1
    37    21    22   ar
    38    21    24    1
    39    22    23   ar
    40    22    43    1
    41    23    44    1
    42    24    45    1
    43    26    46    1
    44    27    47    1
    45    28    48    1
    46    29    49    1
    47    30    50    1
    48     1    31    1
    49     1    27    1
    50     2    32    1
    51     2    28    1
    52     4    34    1
    53     4    30    1
