@<TRIPOS>MOLECULE
*****
 50 53 0 0 0
SMALL
GASTEIGER

@<TRIPOS>ATOM
     1 C         -0.345596   -1.375122   1.661447 C.3        1 UNL1     0.1889
     2 C         -0.472118   -0.976184   0.166529 C.3        1 UNL1     0.1342
     3 C         -1.912596   -0.93353   -0.366076 C.3        1 UNL1     0.1174
     4 C         -2.809509   -2.003191   0.262007 C.3        1 UNL1     0.1456
     5 C         -2.658618   -2.075677   1.792477 C.3        1 UNL1     0.2326
     6 O         -1.296047   -2.31755   2.135649 O.3        1 UNL1     -0.3076
     7 O         -3.222394   -0.942953   2.478343 O.3        1 UNL1     -0.4605
     8 C         -3.745041   -1.193384   3.734389 C.ar        1 UNL1     0.1310
     9 C         -4.579329   -2.266453   4.065732 C.ar        1 UNL1     0.0226
     10 C         -5.04456   -2.444333   5.374098 C.ar        1 UNL1     0.1343
     11 C         -4.667091   -1.565988   6.388922 C.ar        1 UNL1     0.1007
     12 C         -3.867669   -0.467457   6.061907 C.ar        1 UNL1     0.1389
     13 C         -3.402165   -0.287335   4.74574 C.ar        1 UNL1     0.0229
     14 C         -5.060945   -1.753926   7.804447 C.2        1 UNL1     0.1740
     15 C         -4.386215   -0.847739   8.791926 C.3        1 UNL1     0.0520
     16 C         -4.29246   0.544305   8.182517 C.3        1 UNL1     0.1322
     17 O         -3.525132   0.517724   6.958764 O.3        1 UNL1     -0.4828
     18 C         -5.640798   1.259943   8.070402 C.ar        1 UNL1     -0.0067
     19 C         -5.700737   2.534036   7.469315 C.ar        1 UNL1     -0.0516
     20 C         -6.909481   3.236261   7.393279 C.ar        1 UNL1     -0.0198
     21 C         -8.061253   2.679664   7.920012 C.ar        1 UNL1     0.1169
     22 C         -8.04058   1.412529   8.488152 C.ar        1 UNL1     -0.0198
     23 C         -6.83558   0.702266   8.54778 C.ar        1 UNL1     -0.0516
     24 O         -9.212278   3.40913   7.861536 O.3        1 UNL1     -0.5068
     25 O         -5.82529   -2.638118   8.181895 O.2        1 UNL1     -0.2917
     26 O         -5.856155   -3.510557   5.631126 O.3        1 UNL1     -0.5058
     27 O         -0.229303   -0.26355   2.535329 O.3        1 UNL1     -0.3648
     28 O         0.24894   -1.938619   -0.624989 O.3        1 UNL1     -0.3841
     29 O         -2.457052   0.382681   -0.250792 O.3        1 UNL1     -0.3863
     30 O         -2.474674   -3.291212   -0.298866 O.3        1 UNL1     -0.3829
     31 H         0.609919   -1.90078   1.765151 H        1 UNL1     0.0937
     32 H         0.0   0.0   0.0 H        1 UNL1     0.0671
     33 H         -1.87763   -1.141372   -1.444639 H        1 UNL1     0.0649
     34 H         -3.857741   -1.806912   0.010837 H        1 UNL1     0.0683
     35 H         -3.222252   -2.974736   2.071563 H        1 UNL1     0.1085
     36 H         -4.863157   -3.015087   3.334221 H        1 UNL1     0.0691
     37 H         -2.78197   0.576626   4.516783 H        1 UNL1     0.0691
     38 H         -3.391113   -1.258898   8.992542 H        1 UNL1     0.0385
     39 H         -4.953417   -0.852167   9.728964 H        1 UNL1     0.0385
     40 H         -3.693705   1.15842   8.868722 H        1 UNL1     0.0789
     41 H         -4.808859   2.996529   7.056633 H        1 UNL1     0.0623
     42 H         -6.940463   4.223057   6.937993 H        1 UNL1     0.0654
     43 H         -8.939649   0.960907   8.890175 H        1 UNL1     0.0654
     44 H         -6.858162   -0.289533   8.988993 H        1 UNL1     0.0623
     45 H         -9.087884   4.220444   8.380201 H        1 UNL1     0.2921
     46 H         -5.477051   -4.039661   6.350668 H        1 UNL1     0.2922
     47 H         0.506437   0.301877   2.261762 H        1 UNL1     0.2126
     48 H         1.194245   -1.829296   -0.405491 H        1 UNL1     0.2101
     49 H         -2.018369   0.977527   -0.879688 H        1 UNL1     0.2100
     50 H         -2.713018   -3.277506   -1.24898 H        1 UNL1     0.2102
@<TRIPOS>BOND
     1     1     2    1
     2     1     6    1
     3     2     3    1
     4     3     4    1
     5     3    29    1
     6     3    33    1
     7     4     5    1
     8     5     6    1
     9     5     7    1
    10     5    35    1
    11     7     8    1
    12     8     9   ar
    13     8    13   ar
    14     9    10   ar
    15     9    36    1
    16    10    11   ar
    17    10    26    1
    18    11    12   ar
    19    11    14    1
    20    12    13   ar
    21    12    17    1
    22    13    37    1
    23    14    15    1
    24    14    25    2
    25    15    16    1
    26    15    38    1
    27    15    39    1
    28    16    17    1
    29    16    18    1
    30    16    40    1
    31    18    19   ar
    32    18    23   ar
    33    19    20   ar
    34    19    41    1
    35    20    21   ar
    36    20    42    1
    37    21    22   ar
    38    21    24    1
    39    22    23   ar
    40    22    43    1
    41    23    44    1
    42    24    45    1
    43    26    46    1
    44    27    47    1
    45    28    48    1
    46    29    49    1
    47    30    50    1
    48     1    31    1
    49     1    27    1
    50     2    32    1
    51     2    28    1
    52     4    34    1
    53     4    30    1
