@<TRIPOS>MOLECULE
*****
 50 53 0 0 0
SMALL
GASTEIGER

@<TRIPOS>ATOM
     1 C         -0.397089   -1.408058   1.62188 C.3        1 UNL1     0.1889
     2 C         -0.501074   -0.966246   0.137317 C.3        1 UNL1     0.1342
     3 C         -1.935759   -0.868057   -0.403518 C.3        1 UNL1     0.1174
     4 C         -2.867534   -1.927683   0.189866 C.3        1 UNL1     0.1456
     5 C         -2.730114   -2.044935   1.71883 C.3        1 UNL1     0.2326
     6 O         -1.3776   -2.334936   2.064477 O.3        1 UNL1     -0.3076
     7 O         -3.266315   -0.91498   2.430878 O.3        1 UNL1     -0.4605
     8 C         -3.805198   -1.183387   3.676306 C.ar        1 UNL1     0.1310
     9 C         -4.664025   -2.246454   3.975646 C.ar        1 UNL1     0.0226
     10 C         -5.144506   -2.444721   5.275543 C.ar        1 UNL1     0.1343
     11 C         -4.758429   -1.597795   6.313571 C.ar        1 UNL1     0.1007
     12 C         -3.933982   -0.508662   6.018848 C.ar        1 UNL1     0.1389
     13 C         -3.453114   -0.307981   4.711207 C.ar        1 UNL1     0.0229
     14 C         -5.168717   -1.810033   7.72097 C.2        1 UNL1     0.1740
     15 C         -4.484644   -0.940741   8.734836 C.3        1 UNL1     0.0520
     16 C         -4.357198   0.462698   8.158578 C.3        1 UNL1     0.1322
     17 O         -3.579604   0.448471   6.941116 O.3        1 UNL1     -0.4828
     18 C         -5.689681   1.208191   8.051553 C.ar        1 UNL1     -0.0067
     19 C         -5.766162   2.38167   7.273537 C.ar        1 UNL1     -0.0516
     20 C         -6.956867   3.113543   7.192626 C.ar        1 UNL1     -0.0198
     21 C         -8.073472   2.687397   7.889345 C.ar        1 UNL1     0.1169
     22 C         -8.038768   1.517552   8.637075 C.ar        1 UNL1     -0.0198
     23 C         -6.853444   0.775479   8.703329 C.ar        1 UNL1     -0.0516
     24 O         -9.204411   3.446431   7.816928 O.3        1 UNL1     -0.5068
     25 O         -5.954201   -2.686803   8.071362 O.2        1 UNL1     -0.2917
     26 O         -5.979839   -3.499708   5.500943 O.3        1 UNL1     -0.5058
     27 O         -0.255515   -0.323796   2.525827 O.3        1 UNL1     -0.3648
     28 O         0.197993   -1.927777   -0.674761 O.3        1 UNL1     -0.3841
     29 O         -2.443173   0.459777   -0.256819 O.3        1 UNL1     -0.3863
     30 O         -2.565544   -3.209528   -0.402894 O.3        1 UNL1     -0.3829
     31 H         0.542201   -1.963573   1.717884 H        1 UNL1     0.0937
     32 H         0.0   0.0   0.0 H        1 UNL1     0.0671
     33 H         -1.898769   -1.048224   -1.486981 H        1 UNL1     0.0649
     34 H         -3.907833   -1.694726   -0.062941 H        1 UNL1     0.0683
     35 H         -3.321291   -2.934456   1.970109 H        1 UNL1     0.1085
     36 H         -4.956397   -2.972146   3.22464 H        1 UNL1     0.0691
     37 H         -2.813489   0.548116   4.507566 H        1 UNL1     0.0691
     38 H         -3.49993   -1.376692   8.934363 H        1 UNL1     0.0385
     39 H         -5.060215   -0.955033   9.666658 H        1 UNL1     0.0385
     40 H         -3.752299   1.048521   8.863865 H        1 UNL1     0.0789
     41 H         -4.901055   2.742076   6.724584 H        1 UNL1     0.0623
     42 H         -6.999832   4.023293   6.59889 H        1 UNL1     0.0654
     43 H         -8.911661   1.166618   9.174489 H        1 UNL1     0.0654
     44 H         -6.865183   -0.139109   9.288337 H        1 UNL1     0.0623
     45 H         -9.025902   4.303567   8.236653 H        1 UNL1     0.2921
     46 H         -5.618025   -4.052827   6.211268 H        1 UNL1     0.2922
     47 H         0.498106   0.227247   2.272317 H        1 UNL1     0.2126
     48 H         1.151236   -1.789629   -0.513592 H        1 UNL1     0.2101
     49 H         -1.983007   1.058167   -0.866712 H        1 UNL1     0.2100
     50 H         -2.817442   -3.171141   -1.348826 H        1 UNL1     0.2102
@<TRIPOS>BOND
     1     1     2    1
     2     1     6    1
     3     2     3    1
     4     3     4    1
     5     3    29    1
     6     3    33    1
     7     4     5    1
     8     5     6    1
     9     5     7    1
    10     5    35    1
    11     7     8    1
    12     8     9   ar
    13     8    13   ar
    14     9    10   ar
    15     9    36    1
    16    10    11   ar
    17    10    26    1
    18    11    12   ar
    19    11    14    1
    20    12    13   ar
    21    12    17    1
    22    13    37    1
    23    14    15    1
    24    14    25    2
    25    15    16    1
    26    15    38    1
    27    15    39    1
    28    16    17    1
    29    16    18    1
    30    16    40    1
    31    18    19   ar
    32    18    23   ar
    33    19    20   ar
    34    19    41    1
    35    20    21   ar
    36    20    42    1
    37    21    22   ar
    38    21    24    1
    39    22    23   ar
    40    22    43    1
    41    23    44    1
    42    24    45    1
    43    26    46    1
    44    27    47    1
    45    28    48    1
    46    29    49    1
    47    30    50    1
    48     1    31    1
    49     1    27    1
    50     2    32    1
    51     2    28    1
    52     4    34    1
    53     4    30    1
