@<TRIPOS>MOLECULE
*****
 50 53 0 0 0
SMALL
GASTEIGER

@<TRIPOS>ATOM
     1 C         -1.199497   0.371288   -1.78722 C.3        1 UNL1     0.1889
     2 C         -0.396027   0.861073   -0.552519 C.3        1 UNL1     0.1342
     3 C         -1.187437   1.755623   0.413874 C.3        1 UNL1     0.1174
     4 C         -2.194599   2.658328   -0.302972 C.3        1 UNL1     0.1456
     5 C         -3.026395   1.898068   -1.352011 C.3        1 UNL1     0.2326
     6 O         -2.16209   1.279323   -2.302275 O.3        1 UNL1     -0.3076
     7 O         -3.979838   0.986399   -0.776576 O.3        1 UNL1     -0.4605
     8 C         -3.93847   0.854917   0.599843 C.ar        1 UNL1     0.1310
     9 C         -4.904773   0.213183   1.381979 C.ar        1 UNL1     0.0226
     10 C         -4.763987   0.116937   2.771518 C.ar        1 UNL1     0.1343
     11 C         -3.640603   0.639796   3.410634 C.ar        1 UNL1     0.1007
     12 C         -2.68899   1.318847   2.645059 C.ar        1 UNL1     0.1389
     13 C         -2.832082   1.417797   1.248219 C.ar        1 UNL1     0.0229
     14 C         -3.400146   0.492952   4.864859 C.2        1 UNL1     0.1740
     15 C         -2.042986   0.916664   5.344585 C.3        1 UNL1     0.0520
     16 C         -1.647955   2.189985   4.609357 C.3        1 UNL1     0.1322
     17 O         -1.600187   1.964784   3.183148 O.3        1 UNL1     -0.4828
     18 C         -2.455073   3.420362   5.030614 C.ar        1 UNL1     -0.0067
     19 C         -3.425018   3.297727   6.046676 C.ar        1 UNL1     -0.0516
     20 C         -4.213368   4.391735   6.422993 C.ar        1 UNL1     -0.0198
     21 C         -4.046889   5.609077   5.787234 C.ar        1 UNL1     0.1169
     22 C         -3.07701   5.769745   4.806234 C.ar        1 UNL1     -0.0198
     23 C         -2.275885   4.680711   4.44256 C.ar        1 UNL1     -0.0516
     24 O         -4.858704   6.641909   6.154134 O.3        1 UNL1     -0.5068
     25 O         -4.210404   -0.013766   5.636353 O.2        1 UNL1     -0.2917
     26 O         -5.742613   -0.520663   3.476742 O.3        1 UNL1     -0.5058
     27 O         -1.739657   -0.931118   -1.629891 O.3        1 UNL1     -0.3648
     28 O         0.73256   1.625071   -1.016526 O.3        1 UNL1     -0.3841
     29 O         -1.784025   0.976446   1.45267 O.3        1 UNL1     -0.3863
     30 O         -1.485253   3.730346   -0.961223 O.3        1 UNL1     -0.3829
     31 H         -0.48059   0.267797   -2.607306 H        1 UNL1     0.0937
     32 H         0.0   0.0   0.0 H        1 UNL1     0.0671
     33 H         -0.471437   2.417813   0.920399 H        1 UNL1     0.0649
     34 H         -2.868303   3.120529   0.427025 H        1 UNL1     0.0683
     35 H         -3.569746   2.689658   -1.883079 H        1 UNL1     0.1085
     36 H         -5.772958   -0.26244   0.939084 H        1 UNL1     0.0691
     37 H         -2.077804   1.952576   0.675009 H        1 UNL1     0.0691
     38 H         -1.344987   0.101532   5.125765 H        1 UNL1     0.0385
     39 H         -2.07409   1.058151   6.430307 H        1 UNL1     0.0385
     40 H         -0.609214   2.414931   4.886729 H        1 UNL1     0.0789
     41 H         -3.581296   2.350518   6.554635 H        1 UNL1     0.0623
     42 H         -4.966136   4.281416   7.199641 H        1 UNL1     0.0654
     43 H         -2.927953   6.72255   4.312418 H        1 UNL1     0.0654
     44 H         -1.520863   4.844836   3.67977 H        1 UNL1     0.0623
     45 H         -4.367969   7.472251   6.042659 H        1 UNL1     0.2921
     46 H         -5.835846   -0.105427   4.348693 H        1 UNL1     0.2922
     47 H         -1.279207   -1.556485   -2.206746 H        1 UNL1     0.2126
     48 H         0.601482   2.539015   -0.698315 H        1 UNL1     0.2101
     49 H         -2.004179   1.545681   2.207189 H        1 UNL1     0.2100
     50 H         -2.02901   4.541853   -0.88708 H        1 UNL1     0.2102
@<TRIPOS>BOND
     1     1     2    1
     2     1     6    1
     3     2     3    1
     4     3     4    1
     5     3    29    1
     6     3    33    1
     7     4     5    1
     8     5     6    1
     9     5     7    1
    10     5    35    1
    11     7     8    1
    12     8     9   ar
    13     8    13   ar
    14     9    10   ar
    15     9    36    1
    16    10    11   ar
    17    10    26    1
    18    11    12   ar
    19    11    14    1
    20    12    13   ar
    21    12    17    1
    22    13    37    1
    23    14    15    1
    24    14    25    2
    25    15    16    1
    26    15    38    1
    27    15    39    1
    28    16    17    1
    29    16    18    1
    30    16    40    1
    31    18    19   ar
    32    18    23   ar
    33    19    20   ar
    34    19    41    1
    35    20    21   ar
    36    20    42    1
    37    21    22   ar
    38    21    24    1
    39    22    23   ar
    40    22    43    1
    41    23    44    1
    42    24    45    1
    43    26    46    1
    44    27    47    1
    45    28    48    1
    46    29    49    1
    47    30    50    1
    48     1    31    1
    49     1    27    1
    50     2    32    1
    51     2    28    1
    52     4    34    1
    53     4    30    1
