@<TRIPOS>MOLECULE
*****
 50 53 0 0 0
SMALL
GASTEIGER

@<TRIPOS>ATOM
     1 C         -0.334845   -1.329315   1.700472 C.3        1 UNL1     0.1889
     2 C         -0.46405   -0.974856   0.194615 C.3        1 UNL1     0.1342
     3 C         -1.904608   -0.959625   -0.339263 C.3        1 UNL1     0.1174
     4 C         -2.792857   -2.018103   0.31934 C.3        1 UNL1     0.1456
     5 C         -2.642014   -2.045026   1.851295 C.3        1 UNL1     0.2326
     6 O         -1.277623   -2.265514   2.201567 O.3        1 UNL1     -0.3076
     7 O         -3.215484   -0.897669   2.504001 O.3        1 UNL1     -0.4605
     8 C         -3.725948   -1.113415   3.771443 C.ar        1 UNL1     0.1310
     9 C         -4.543955   -2.18553   4.143912 C.ar        1 UNL1     0.0226
     10 C         -4.997575   -2.326329   5.460843 C.ar        1 UNL1     0.1343
     11 C         -4.624289   -1.4105   6.443572 C.ar        1 UNL1     0.1007
     12 C         -3.841442   -0.313238   6.074858 C.ar        1 UNL1     0.1389
     13 C         -3.387634   -0.170451   4.750055 C.ar        1 UNL1     0.0229
     14 C         -5.005651   -1.556936   7.867395 C.2        1 UNL1     0.1740
     15 C         -4.335691   -0.610414   8.819656 C.3        1 UNL1     0.0520
     16 C         -4.264219   0.761994   8.164411 C.3        1 UNL1     0.1322
     17 O         -3.505299   0.705054   6.936458 O.3        1 UNL1     -0.4828
     18 C         -5.622438   1.456444   8.039095 C.ar        1 UNL1     -0.0067
     19 C         -6.000308   2.020797   6.803403 C.ar        1 UNL1     -0.0516
     20 C         -7.214562   2.70416   6.667151 C.ar        1 UNL1     -0.0198
     21 C         -8.054445   2.836092   7.758489 C.ar        1 UNL1     0.1169
     22 C         -7.725368   2.262433   8.979743 C.ar        1 UNL1     -0.0198
     23 C         -6.519678   1.563135   9.111463 C.ar        1 UNL1     -0.0516
     24 O         -9.211088   3.540866   7.59765 O.3        1 UNL1     -0.5068
     25 O         -5.755833   -2.437895   8.279249 O.2        1 UNL1     -0.2917
     26 O         -5.793507   -3.393751   5.758644 O.3        1 UNL1     -0.5058
     27 O         -0.228173   -0.191999   2.541851 O.3        1 UNL1     -0.3648
     28 O         0.265324   -1.953747   -0.568597 O.3        1 UNL1     -0.3841
     29 O         -2.460044   0.354789   -0.262204 O.3        1 UNL1     -0.3863
     30 O         -2.44708   -3.318976   -0.203974 O.3        1 UNL1     -0.3829
     31 H         0.624966   -1.843777   1.819514 H        1 UNL1     0.0937
     32 H         0.0   0.0   0.0 H        1 UNL1     0.0671
     33 H         -1.867459   -1.198283   -1.411355 H        1 UNL1     0.0649
     34 H         -3.842579   -1.837908   0.062407 H        1 UNL1     0.0683
     35 H         -3.198266   -2.940298   2.156171 H        1 UNL1     0.1085
     36 H         -4.823276   -2.961261   3.439396 H        1 UNL1     0.0691
     37 H         -2.780273   0.693329   4.488351 H        1 UNL1     0.0691
     38 H         -3.333971   -1.002147   9.026126 H        1 UNL1     0.0385
     39 H         -4.896137   -0.591323   9.760567 H        1 UNL1     0.0385
     40 H         -3.668592   1.405791   8.825678 H        1 UNL1     0.0789
     41 H         -5.354365   1.938841   5.934098 H        1 UNL1     0.0623
     42 H         -7.489224   3.145194   5.712132 H        1 UNL1     0.0654
     43 H         -8.382707   2.346792   9.83689 H        1 UNL1     0.0654
     44 H         -6.299457   1.118689   10.077287 H        1 UNL1     0.0623
     45 H         -8.983717   4.447991   7.336607 H        1 UNL1     0.2921
     46 H         -5.389956   -3.908182   6.475526 H        1 UNL1     0.2922
     47 H         0.5159   0.360743   2.264919 H        1 UNL1     0.2126
     48 H         1.198089   -1.890103   -0.28641 H        1 UNL1     0.2101
     49 H         -2.019914   0.937061   -0.901766 H        1 UNL1     0.2100
     50 H         -2.679907   -3.332826   -1.155453 H        1 UNL1     0.2102
@<TRIPOS>BOND
     1     1     2    1
     2     1     6    1
     3     2     3    1
     4     3     4    1
     5     3    29    1
     6     3    33    1
     7     4     5    1
     8     5     6    1
     9     5     7    1
    10     5    35    1
    11     7     8    1
    12     8     9   ar
    13     8    13   ar
    14     9    10   ar
    15     9    36    1
    16    10    11   ar
    17    10    26    1
    18    11    12   ar
    19    11    14    1
    20    12    13   ar
    21    12    17    1
    22    13    37    1
    23    14    15    1
    24    14    25    2
    25    15    16    1
    26    15    38    1
    27    15    39    1
    28    16    17    1
    29    16    18    1
    30    16    40    1
    31    18    19   ar
    32    18    23   ar
    33    19    20   ar
    34    19    41    1
    35    20    21   ar
    36    20    42    1
    37    21    22   ar
    38    21    24    1
    39    22    23   ar
    40    22    43    1
    41    23    44    1
    42    24    45    1
    43    26    46    1
    44    27    47    1
    45    28    48    1
    46    29    49    1
    47    30    50    1
    48     1    31    1
    49     1    27    1
    50     2    32    1
    51     2    28    1
    52     4    34    1
    53     4    30    1
