@<TRIPOS>MOLECULE
*****
 50 53 0 0 0
SMALL
GASTEIGER

@<TRIPOS>ATOM
     1 C         -0.357371   -1.367889   1.664923 C.3        1 UNL1     0.1889
     2 C         -0.480068   -0.971889   0.168905 C.3        1 UNL1     0.1342
     3 C         -1.919943   -0.918987   -0.364412 C.3        1 UNL1     0.1174
     4 C         -2.825732   -1.979694   0.266115 C.3        1 UNL1     0.1456
     5 C         -2.676038   -2.049357   1.796835 C.3        1 UNL1     0.2326
     6 O         -1.315605   -2.301341   2.141212 O.3        1 UNL1     -0.3076
     7 O         -3.230901   -0.910301   2.479475 O.3        1 UNL1     -0.4605
     8 C         -3.756055   -1.153178   3.735959 C.ar        1 UNL1     0.1310
     9 C         -4.599131   -2.218582   4.069782 C.ar        1 UNL1     0.0226
     10 C         -5.066305   -2.389237   5.378418 C.ar        1 UNL1     0.1343
     11 C         -4.682141   -1.511299   6.39108 C.ar        1 UNL1     0.1007
     12 C         -3.873726   -0.42014   6.061503 C.ar        1 UNL1     0.1389
     13 C         -3.406259   -0.247266   4.745061 C.ar        1 UNL1     0.0229
     14 C         -5.078065   -1.692305   7.806931 C.2        1 UNL1     0.1740
     15 C         -4.396415   -0.789004   8.792299 C.3        1 UNL1     0.0520
     16 C         -4.291156   0.600623   8.17926 C.3        1 UNL1     0.1322
     17 O         -3.523584   0.564603   6.955902 O.3        1 UNL1     -0.4828
     18 C         -5.633615   1.326848   8.064695 C.ar        1 UNL1     -0.0067
     19 C         -5.981853   1.950964   6.849202 C.ar        1 UNL1     -0.0516
     20 C         -7.180441   2.663699   6.725277 C.ar        1 UNL1     -0.0198
     21 C         -8.033915   2.765643   7.809258 C.ar        1 UNL1     0.1169
     22 C         -7.734419   2.133826   9.009237 C.ar        1 UNL1     -0.0198
     23 C         -6.544633   1.405539   9.127826 C.ar        1 UNL1     -0.0516
     24 O         -9.174125   3.499664   7.662511 O.3        1 UNL1     -0.5068
     25 O         -5.849689   -2.569284   8.186391 O.2        1 UNL1     -0.2917
     26 O         -5.886604   -3.448177   5.637918 O.3        1 UNL1     -0.5058
     27 O         -0.232432   -0.254991   2.535919 O.3        1 UNL1     -0.3648
     28 O         0.233491   -1.942213   -0.61977 O.3        1 UNL1     -0.3841
     29 O         -2.453775   0.401886   -0.252827 O.3        1 UNL1     -0.3863
     30 O         -2.501108   -3.271858   -0.291219 O.3        1 UNL1     -0.3829
     31 H         0.593818   -1.900986   1.770412 H        1 UNL1     0.0937
     32 H         0.0   0.0   0.0 H        1 UNL1     0.0671
     33 H         -1.886232   -1.129953   -1.442408 H        1 UNL1     0.0649
     34 H         -3.872241   -1.775603   0.013991 H        1 UNL1     0.0683
     35 H         -3.24704   -2.943086   2.078055 H        1 UNL1     0.1085
     36 H         -4.888718   -2.966824   3.340129 H        1 UNL1     0.0691
     37 H         -2.779002   0.611042   4.514085 H        1 UNL1     0.0691
     38 H         -3.404752   -1.20767   8.994414 H        1 UNL1     0.0385
     39 H         -4.964005   -0.786367   9.729109 H        1 UNL1     0.0385
     40 H         -3.687723   1.211682   8.864093 H        1 UNL1     0.0789
     41 H         -5.324628   1.893331   5.986425 H        1 UNL1     0.0623
     42 H         -7.432113   3.150569   5.786325 H        1 UNL1     0.0654
     43 H         -8.402807   2.194608   9.859809 H        1 UNL1     0.0654
     44 H         -6.347615   0.91589   10.076653 H        1 UNL1     0.0623
     45 H         -8.924938   4.419255   7.475495 H        1 UNL1     0.2921
     46 H         -5.50099   -3.990732   6.343856 H        1 UNL1     0.2922
     47 H         0.507967   0.30374   2.261169 H        1 UNL1     0.2126
     48 H         1.174076   -1.871084   -0.366843 H        1 UNL1     0.2101
     49 H         -2.009803   0.991577   -0.882864 H        1 UNL1     0.2100
     50 H         -2.738957   -3.258733   -1.241465 H        1 UNL1     0.2102
@<TRIPOS>BOND
     1     1     2    1
     2     1     6    1
     3     2     3    1
     4     3     4    1
     5     3    29    1
     6     3    33    1
     7     4     5    1
     8     5     6    1
     9     5     7    1
    10     5    35    1
    11     7     8    1
    12     8     9   ar
    13     8    13   ar
    14     9    10   ar
    15     9    36    1
    16    10    11   ar
    17    10    26    1
    18    11    12   ar
    19    11    14    1
    20    12    13   ar
    21    12    17    1
    22    13    37    1
    23    14    15    1
    24    14    25    2
    25    15    16    1
    26    15    38    1
    27    15    39    1
    28    16    17    1
    29    16    18    1
    30    16    40    1
    31    18    19   ar
    32    18    23   ar
    33    19    20   ar
    34    19    41    1
    35    20    21   ar
    36    20    42    1
    37    21    22   ar
    38    21    24    1
    39    22    23   ar
    40    22    43    1
    41    23    44    1
    42    24    45    1
    43    26    46    1
    44    27    47    1
    45    28    48    1
    46    29    49    1
    47    30    50    1
    48     1    31    1
    49     1    27    1
    50     2    32    1
    51     2    28    1
    52     4    34    1
    53     4    30    1
