@<TRIPOS>MOLECULE
*****
 50 53 0 0 0
SMALL
GASTEIGER

@<TRIPOS>ATOM
     1 C         -0.371131   -1.39752   1.637072 C.3        1 UNL1     0.1889
     2 C         -0.487901   -0.971256   0.148917 C.3        1 UNL1     0.1342
     3 C         -1.926301   -0.896686   -0.385786 C.3        1 UNL1     0.1174
     4 C         -2.841479   -1.9625   0.222168 C.3        1 UNL1     0.1456
     5 C         -2.695253   -2.063391   1.751483 C.3        1 UNL1     0.2326
     6 O         -1.337472   -2.332667   2.093228 O.3        1 UNL1     -0.3076
     7 O         -3.242582   -0.933686   2.455414 O.3        1 UNL1     -0.4605
     8 C         -3.772   -1.197114   3.705954 C.ar        1 UNL1     0.1310
     9 C         -4.621161   -2.264274   4.018035 C.ar        1 UNL1     0.0226
     10 C         -5.092369   -2.456747   5.32219 C.ar        1 UNL1     0.1343
     11 C         -4.70633   -1.599607   6.351814 C.ar        1 UNL1     0.1007
     12 C         -3.891712   -0.506602   6.044374 C.ar        1 UNL1     0.1389
     13 C         -3.420181   -0.311768   4.732456 C.ar        1 UNL1     0.0229
     14 C         -5.106601   -1.804768   7.763142 C.2        1 UNL1     0.1740
     15 C         -4.422888   -0.923254   8.766645 C.3        1 UNL1     0.0520
     16 C         -4.309243   0.476921   8.17966 C.3        1 UNL1     0.1322
     17 O         -3.538875   0.459678   6.957651 O.3        1 UNL1     -0.4828
     18 C         -5.6478   1.211847   8.075392 C.ar        1 UNL1     -0.0067
     19 C         -5.894734   2.322565   8.908185 C.ar        1 UNL1     -0.0516
     20 C         -7.12593   2.987996   8.871831 C.ar        1 UNL1     -0.0198
     21 C         -8.118704   2.548905   8.01426 C.ar        1 UNL1     0.1169
     22 C         -7.893692   1.478784   7.158077 C.ar        1 UNL1     -0.0198
     23 C         -6.656091   0.824665   7.181058 C.ar        1 UNL1     -0.0516
     24 O         -9.318021   3.19826   8.033649 O.3        1 UNL1     -0.5068
     25 O         -5.883489   -2.684739   8.124504 O.2        1 UNL1     -0.2917
     26 O         -5.91854   -3.516185   5.560133 O.3        1 UNL1     -0.5058
     27 O         -0.239243   -0.302957   2.530002 O.3        1 UNL1     -0.3648
     28 O         0.219629   -1.931417   -0.657431 O.3        1 UNL1     -0.3841
     29 O         -2.450102   0.425852   -0.249187 O.3        1 UNL1     -0.3863
     30 O         -2.525806   -3.245949   -0.359896 O.3        1 UNL1     -0.3829
     31 H         0.575698   -1.939969   1.73373 H        1 UNL1     0.0937
     32 H         0.0   0.0   0.0 H        1 UNL1     0.0671
     33 H         -1.892166   -1.086684   -1.467662 H        1 UNL1     0.0649
     34 H         -3.885893   -1.74536   -0.027733 H        1 UNL1     0.0683
     35 H         -3.273694   -2.958004   2.01407 H        1 UNL1     0.1085
     36 H         -4.912673   -2.997445   3.27399 H        1 UNL1     0.0691
     37 H         -2.788113   0.547513   4.518867 H        1 UNL1     0.0691
     38 H         -3.43381   -1.35054   8.963312 H        1 UNL1     0.0385
     39 H         -4.992744   -0.935093   9.702008 H        1 UNL1     0.0385
     40 H         -3.704462   1.072192   8.877093 H        1 UNL1     0.0789
     41 H         -5.134972   2.681044   9.596593 H        1 UNL1     0.0623
     42 H         -7.308406   3.835854   9.527461 H        1 UNL1     0.0654
     43 H         -8.658909   1.136084   6.471848 H        1 UNL1     0.0654
     44 H         -6.51118   -0.000952   6.490984 H        1 UNL1     0.0623
     45 H         -9.344454   3.815994   7.285035 H        1 UNL1     0.2921
     46 H         -5.705663   -3.904987   6.423225 H        1 UNL1     0.2922
     47 H         0.64844   -0.289463   2.914316 H        1 UNL1     0.2126
     48 H         -0.336609   -2.101949   -1.44181 H        1 UNL1     0.2101
     49 H         -2.998784   0.48266   0.549258 H        1 UNL1     0.2100
     50 H         -1.991283   -3.748251   0.289482 H        1 UNL1     0.2102
@<TRIPOS>BOND
     1     1     2    1
     2     1     6    1
     3     2     3    1
     4     3     4    1
     5     3    29    1
     6     3    33    1
     7     4     5    1
     8     5     6    1
     9     5     7    1
    10     5    35    1
    11     7     8    1
    12     8     9   ar
    13     8    13   ar
    14     9    10   ar
    15     9    36    1
    16    10    11   ar
    17    10    26    1
    18    11    12   ar
    19    11    14    1
    20    12    13   ar
    21    12    17    1
    22    13    37    1
    23    14    15    1
    24    14    25    2
    25    15    16    1
    26    15    38    1
    27    15    39    1
    28    16    17    1
    29    16    18    1
    30    16    40    1
    31    18    19   ar
    32    18    23   ar
    33    19    20   ar
    34    19    41    1
    35    20    21   ar
    36    20    42    1
    37    21    22   ar
    38    21    24    1
    39    22    23   ar
    40    22    43    1
    41    23    44    1
    42    24    45    1
    43    26    46    1
    44    27    47    1
    45    28    48    1
    46    29    49    1
    47    30    50    1
    48     1    31    1
    49     1    27    1
    50     2    32    1
    51     2    28    1
    52     4    34    1
    53     4    30    1
