@<TRIPOS>MOLECULE
*****
 50 53 0 0 0
SMALL
GASTEIGER

@<TRIPOS>ATOM
     1 C         -0.315726   -1.374661   1.667762 C.3        1 UNL1     0.1889
     2 C         -0.459466   -0.981087   0.172978 C.3        1 UNL1     0.1342
     3 C         -1.904796   -0.956308   -0.347476 C.3        1 UNL1     0.1174
     4 C         -2.784035   -2.034527   0.290881 C.3        1 UNL1     0.1456
     5 C         -2.619371   -2.1013   1.820191 C.3        1 UNL1     0.2326
     6 O         -1.251259   -2.326668   2.15238 O.3        1 UNL1     -0.3076
     7 O         -3.190272   -0.973321   2.507983 O.3        1 UNL1     -0.4605
     8 C         -3.69936   -1.22645   3.769047 C.ar        1 UNL1     0.1310
     9 C         -4.50993   -2.313808   4.112453 C.ar        1 UNL1     0.0226
     10 C         -4.962703   -2.492947   5.425011 C.ar        1 UNL1     0.1343
     11 C         -4.595905   -1.601171   6.432005 C.ar        1 UNL1     0.1007
     12 C         -3.820669   -0.489021   6.093015 C.ar        1 UNL1     0.1389
     13 C         -3.367722   -0.307682   4.772641 C.ar        1 UNL1     0.0229
     14 C         -4.976394   -1.788303   7.851288 C.2        1 UNL1     0.1740
     15 C         -4.313138   -0.862969   8.828732 C.3        1 UNL1     0.0520
     16 C         -4.251144   0.526946   8.210467 C.3        1 UNL1     0.1322
     17 O         -3.491713   0.508163   6.981654 O.3        1 UNL1     -0.4828
     18 C         -5.614148   1.215043   8.103377 C.ar        1 UNL1     -0.0067
     19 C         -5.749569   2.361201   7.293319 C.ar        1 UNL1     -0.0516
     20 C         -6.969989   3.042136   7.210456 C.ar        1 UNL1     -0.0198
     21 C         -8.057998   2.592247   7.936861 C.ar        1 UNL1     0.1169
     22 C         -7.96491   1.447159   8.717211 C.ar        1 UNL1     -0.0198
     23 C         -6.749669   0.755391   8.785803 C.ar        1 UNL1     -0.0516
     24 O         -9.21968   3.302952   7.860753 O.3        1 UNL1     -0.5068
     25 O         -5.720474   -2.685161   8.239199 O.2        1 UNL1     -0.2917
     26 O         -5.751223   -3.573463   5.693909 O.3        1 UNL1     -0.5058
     27 O         -0.204793   -0.259561   2.537838 O.3        1 UNL1     -0.3648
     28 O         0.265853   -1.937262   -0.622224 O.3        1 UNL1     -0.3841
     29 O         -2.463314   0.35388   -0.230867 O.3        1 UNL1     -0.3863
     30 O         -2.439212   -3.320086   -0.269588 O.3        1 UNL1     -0.3829
     31 H         0.646597   -1.889076   1.764661 H        1 UNL1     0.0937
     32 H         0.0   0.0   0.0 H        1 UNL1     0.0671
     33 H         -1.876581   -1.166542   -1.425773 H        1 UNL1     0.0649
     34 H         -3.836537   -1.850913   0.048135 H        1 UNL1     0.0683
     35 H         -3.170275   -3.006022   2.106306 H        1 UNL1     0.1085
     36 H         -4.783771   -3.072331   3.38735 H        1 UNL1     0.0691
     37 H         -2.766356   0.566993   4.534324 H        1 UNL1     0.0691
     38 H         -3.30874   -1.253114   9.024942 H        1 UNL1     0.0385
     39 H         -4.873806   -0.872959   9.769652 H        1 UNL1     0.0385
     40 H         -3.660082   1.156942   8.8889 H        1 UNL1     0.0789
     41 H         -4.907978   2.739696   6.720504 H        1 UNL1     0.0623
     42 H         -7.058524   3.931635   6.591614 H        1 UNL1     0.0654
     43 H         -8.814834   1.077474   9.278346 H        1 UNL1     0.0654
     44 H         -6.715722   -0.141386   9.396935 H        1 UNL1     0.0623
     45 H         -9.069819   4.178485   8.252799 H        1 UNL1     0.2921
     46 H         -5.356845   -4.090589   6.41395 H        1 UNL1     0.2922
     47 H         0.522072   0.313537   2.256615 H        1 UNL1     0.2126
     48 H         1.210703   -1.824296   -0.402612 H        1 UNL1     0.2101
     49 H         -2.036821   0.95207   -0.864955 H        1 UNL1     0.2100
     50 H         -2.706429   -3.319568   -1.212089 H        1 UNL1     0.2102
@<TRIPOS>BOND
     1     1     2    1
     2     1     6    1
     3     2     3    1
     4     3     4    1
     5     3    29    1
     6     3    33    1
     7     4     5    1
     8     5     6    1
     9     5     7    1
    10     5    35    1
    11     7     8    1
    12     8     9   ar
    13     8    13   ar
    14     9    10   ar
    15     9    36    1
    16    10    11   ar
    17    10    26    1
    18    11    12   ar
    19    11    14    1
    20    12    13   ar
    21    12    17    1
    22    13    37    1
    23    14    15    1
    24    14    25    2
    25    15    16    1
    26    15    38    1
    27    15    39    1
    28    16    17    1
    29    16    18    1
    30    16    40    1
    31    18    19   ar
    32    18    23   ar
    33    19    20   ar
    34    19    41    1
    35    20    21   ar
    36    20    42    1
    37    21    22   ar
    38    21    24    1
    39    22    23   ar
    40    22    43    1
    41    23    44    1
    42    24    45    1
    43    26    46    1
    44    27    47    1
    45    28    48    1
    46    29    49    1
    47    30    50    1
    48     1    31    1
    49     1    27    1
    50     2    32    1
    51     2    28    1
    52     4    34    1
    53     4    30    1
