@<TRIPOS>MOLECULE
*****
 50 53 0 0 0
SMALL
GASTEIGER

@<TRIPOS>ATOM
     1 C         -0.336952   -1.330585   1.699062 C.3        1 UNL1     0.1889
     2 C         -0.465086   -0.974589   0.193476 C.3        1 UNL1     0.1342
     3 C         -1.90537   -0.957465   -0.341083 C.3        1 UNL1     0.1174
     4 C         -2.794959   -2.015701   0.316097 C.3        1 UNL1     0.1456
     5 C         -2.644884   -2.044207   1.848098 C.3        1 UNL1     0.2326
     6 O         -1.280876   -2.266342   2.198823 O.3        1 UNL1     -0.3076
     7 O         -3.217562   -0.896909   2.501603 O.3        1 UNL1     -0.4605
     8 C         -3.729272   -1.113454   3.768406 C.ar        1 UNL1     0.1310
     9 C         -4.548795   -2.185041   4.139059 C.ar        1 UNL1     0.0226
     10 C         -5.003615   -2.326758   5.455478 C.ar        1 UNL1     0.1343
     11 C         -4.630062   -1.412428   6.4395 C.ar        1 UNL1     0.1007
     12 C         -3.845673   -0.315658   6.072601 C.ar        1 UNL1     0.1389
     13 C         -3.390657   -0.171945   4.748314 C.ar        1 UNL1     0.0229
     14 C         -5.012715   -1.559981   7.862862 C.2        1 UNL1     0.1740
     15 C         -4.342429   -0.615263   8.816682 C.3        1 UNL1     0.0520
     16 C         -4.268876   0.757777   8.162992 C.3        1 UNL1     0.1322
     17 O         -3.509052   0.70131   6.935577 O.3        1 UNL1     -0.4828
     18 C         -5.626203   1.453912   8.037363 C.ar        1 UNL1     -0.0067
     19 C         -6.001663   2.021675   6.802499 C.ar        1 UNL1     -0.0516
     20 C         -7.21502   2.706603   6.666119 C.ar        1 UNL1     -0.0198
     21 C         -8.056391   2.836714   7.756529 C.ar        1 UNL1     0.1169
     22 C         -7.729713   2.259729   8.976861 C.ar        1 UNL1     -0.0198
     23 C         -6.524929   1.558886   9.108655 C.ar        1 UNL1     -0.0516
     24 O         -9.21208   3.543055   7.595702 O.3        1 UNL1     -0.5068
     25 O         -5.764226   -2.440532   8.273162 O.2        1 UNL1     -0.2917
     26 O         -5.800998   -3.393596   5.751487 O.3        1 UNL1     -0.5058
     27 O         -0.229589   -0.194162   2.541559 O.3        1 UNL1     -0.3648
     28 O         0.263711   -1.953468   -0.570302 O.3        1 UNL1     -0.3841
     29 O         -2.459573   0.357412   -0.26306 O.3        1 UNL1     -0.3863
     30 O         -2.450186   -3.316417   -0.20827 O.3        1 UNL1     -0.3829
     31 H         0.622304   -1.846086   1.818085 H        1 UNL1     0.0937
     32 H         0.0   0.0   0.0 H        1 UNL1     0.0671
     33 H         -1.867932   -1.195154   -1.413381 H        1 UNL1     0.0649
     34 H         -3.844382   -1.834252   0.058825 H        1 UNL1     0.0683
     35 H         -3.202149   -2.939227   2.151866 H        1 UNL1     0.1085
     36 H         -4.828443   -2.959684   3.433477 H        1 UNL1     0.0691
     37 H         -2.782106   0.691427   4.488031 H        1 UNL1     0.0691
     38 H         -3.34132   -1.008363   9.023515 H        1 UNL1     0.0385
     39 H         -4.903597   -0.596558   9.757171 H        1 UNL1     0.0385
     40 H         -3.673038   1.400172   8.825431 H        1 UNL1     0.0789
     41 H         -5.354511   1.941194   5.933956 H        1 UNL1     0.0623
     42 H         -7.487815   3.150256   5.711778 H        1 UNL1     0.0654
     43 H         -8.38824   2.342656   9.833234 H        1 UNL1     0.0654
     44 H         -6.306595   1.111851   10.073712 H        1 UNL1     0.0623
     45 H         -8.983369   4.450892   7.338329 H        1 UNL1     0.2921
     46 H         -5.399246   -3.90854   6.46901 H        1 UNL1     0.2922
     47 H         0.515047   0.358209   2.265399 H        1 UNL1     0.2126
     48 H         1.196523   -1.890502   -0.288115 H        1 UNL1     0.2101
     49 H         -2.01863   0.939836   -0.901923 H        1 UNL1     0.2100
     50 H         -2.682565   -3.329149   -1.159874 H        1 UNL1     0.2102
@<TRIPOS>BOND
     1     1     2    1
     2     1     6    1
     3     2     3    1
     4     3     4    1
     5     3    29    1
     6     3    33    1
     7     4     5    1
     8     5     6    1
     9     5     7    1
    10     5    35    1
    11     7     8    1
    12     8     9   ar
    13     8    13   ar
    14     9    10   ar
    15     9    36    1
    16    10    11   ar
    17    10    26    1
    18    11    12   ar
    19    11    14    1
    20    12    13   ar
    21    12    17    1
    22    13    37    1
    23    14    15    1
    24    14    25    2
    25    15    16    1
    26    15    38    1
    27    15    39    1
    28    16    17    1
    29    16    18    1
    30    16    40    1
    31    18    19   ar
    32    18    23   ar
    33    19    20   ar
    34    19    41    1
    35    20    21   ar
    36    20    42    1
    37    21    22   ar
    38    21    24    1
    39    22    23   ar
    40    22    43    1
    41    23    44    1
    42    24    45    1
    43    26    46    1
    44    27    47    1
    45    28    48    1
    46    29    49    1
    47    30    50    1
    48     1    31    1
    49     1    27    1
    50     2    32    1
    51     2    28    1
    52     4    34    1
    53     4    30    1
