@<TRIPOS>MOLECULE
*****
 50 53 0 0 0
SMALL
GASTEIGER

@<TRIPOS>ATOM
     1 C         -0.899412   1.815481   -0.816021 C.3        1 UNL1     0.1889
     2 C         0.141782   1.085327   0.074333 C.3        1 UNL1     0.1342
     3 C         0.117739   1.493561   1.55529 C.3        1 UNL1     0.1174
     4 C         -0.220914   2.972553   1.757808 C.3        1 UNL1     0.1456
     5 C         -1.428221   3.422386   0.914942 C.3        1 UNL1     0.2326
     6 O         -1.18161   3.162169   -0.465035 O.3        1 UNL1     -0.3076
     7 O         -2.681413   2.886132   1.376748 O.3        1 UNL1     -0.4605
     8 C         -3.359153   2.07475   0.484642 C.ar        1 UNL1     0.1310
     9 C         -2.886824   0.861365   -0.027122 C.ar        1 UNL1     0.0226
     10 C         -3.657502   0.10139   -0.915039 C.ar        1 UNL1     0.1343
     11 C         -4.930391   0.525147   -1.294542 C.ar        1 UNL1     0.1007
     12 C         -5.396084   1.75515   -0.822306 C.ar        1 UNL1     0.1389
     13 C         -4.619893   2.520394   0.068401 C.ar        1 UNL1     0.0229
     14 C         -5.82103   -0.278674   -2.163327 C.2        1 UNL1     0.1740
     15 C         -7.230726   0.220361   -2.286894 C.3        1 UNL1     0.0520
     16 C         -7.196924   1.73897   -2.390047 C.3        1 UNL1     0.1322
     17 O         -6.587384   2.319255   -1.215824 O.3        1 UNL1     -0.4828
     18 C         -6.634396   2.254051   -3.717066 C.ar        1 UNL1     -0.0067
     19 C         -7.196885   1.803701   -4.929091 C.ar        1 UNL1     -0.0516
     20 C         -6.675729   2.218106   -6.160605 C.ar        1 UNL1     -0.0198
     21 C         -5.590096   3.074932   -6.193437 C.ar        1 UNL1     0.1169
     22 C         -5.035562   3.562006   -5.016963 C.ar        1 UNL1     -0.0198
     23 C         -5.568192   3.162305   -3.78546 C.ar        1 UNL1     -0.0516
     24 O         -5.085929   3.426911   -7.410945 O.3        1 UNL1     -0.5068
     25 O         -5.477387   -1.331543   -2.694234 O.2        1 UNL1     -0.2917
     26 O         -3.138541   -1.072257   -1.378523 O.3        1 UNL1     -0.5058
     27 O         -2.087474   1.068693   -1.024831 O.3        1 UNL1     -0.3648
     28 O         1.458204   1.378405   -0.429495 O.3        1 UNL1     -0.3841
     29 O         -0.730545   0.623545   2.307367 O.3        1 UNL1     -0.3863
     30 O         0.92364   3.77472   1.394197 O.3        1 UNL1     -0.3829
     31 H         -0.454408   1.898729   -1.813579 H        1 UNL1     0.0937
     32 H         0.0   0.0   0.0 H        1 UNL1     0.0671
     33 H         1.127124   1.340094   1.961874 H        1 UNL1     0.0649
     34 H         -0.425921   3.167745   2.816238 H        1 UNL1     0.0683
     35 H         -1.443844   4.51278   1.03608 H        1 UNL1     0.1085
     36 H         -1.929156   0.450207   0.27278 H        1 UNL1     0.0691
     37 H         -5.004678   3.475016   0.420723 H        1 UNL1     0.0691
     38 H         -7.775936   -0.102793   -1.393673 H        1 UNL1     0.0385
     39 H         -7.700438   -0.243655   -3.160874 H        1 UNL1     0.0385
     40 H         -8.23776   2.088683   -2.360352 H        1 UNL1     0.0789
     41 H         -8.043677   1.123559   -4.930118 H        1 UNL1     0.0623
     42 H         -7.110722   1.854448   -7.08826 H        1 UNL1     0.0654
     43 H         -4.194782   4.245227   -5.031358 H        1 UNL1     0.0654
     44 H         -5.116859   3.570767   -2.886403 H        1 UNL1     0.0623
     45 H         -4.38728   4.087173   -7.27434 H        1 UNL1     0.2921
     46 H         -3.776473   -1.788422   -1.231685 H        1 UNL1     0.2922
     47 H         -2.828835   1.662936   -1.206817 H        1 UNL1     0.2126
     48 H         1.341559   1.709822   -1.340697 H        1 UNL1     0.2101
     49 H         -0.267679   -0.208845   2.49358 H        1 UNL1     0.2100
     50 H         1.54233   3.206368   0.890301 H        1 UNL1     0.2102
@<TRIPOS>BOND
     1     1     2    1
     2     1     6    1
     3     2     3    1
     4     3     4    1
     5     3    29    1
     6     3    33    1
     7     4     5    1
     8     5     6    1
     9     5     7    1
    10     5    35    1
    11     7     8    1
    12     8     9   ar
    13     8    13   ar
    14     9    10   ar
    15     9    36    1
    16    10    11   ar
    17    10    26    1
    18    11    12   ar
    19    11    14    1
    20    12    13   ar
    21    12    17    1
    22    13    37    1
    23    14    15    1
    24    14    25    2
    25    15    16    1
    26    15    38    1
    27    15    39    1
    28    16    17    1
    29    16    18    1
    30    16    40    1
    31    18    19   ar
    32    18    23   ar
    33    19    20   ar
    34    19    41    1
    35    20    21   ar
    36    20    42    1
    37    21    22   ar
    38    21    24    1
    39    22    23   ar
    40    22    43    1
    41    23    44    1
    42    24    45    1
    43    26    46    1
    44    27    47    1
    45    28    48    1
    46    29    49    1
    47    30    50    1
    48     1    31    1
    49     1    27    1
    50     2    32    1
    51     2    28    1
    52     4    34    1
    53     4    30    1
