@<TRIPOS>MOLECULE
*****
 50 53 0 0 0
SMALL
GASTEIGER

@<TRIPOS>ATOM
     1 C         -0.77043   -2.000889   -0.416758 C.3        1 UNL1     0.1889
     2 C         -0.192669   -0.930666   0.547998 C.3        1 UNL1     0.1342
     3 C         1.088655   -1.354223   1.282351 C.3        1 UNL1     0.1174
     4 C         1.11031   -2.845716   1.626 C.3        1 UNL1     0.1456
     5 C         0.689873   -3.731121   0.438711 C.3        1 UNL1     0.2326
     6 O         -0.608138   -3.352871   -0.014018 O.3        1 UNL1     -0.3076
     7 O         1.66674   -3.775731   -0.617254 O.3        1 UNL1     -0.4605
     8 C         1.319005   -3.13392   -1.79228 C.ar        1 UNL1     0.1310
     9 C         0.038281   -3.11131   -2.354894 C.ar        1 UNL1     0.0226
     10 C         -0.218062   -2.416866   -3.543144 C.ar        1 UNL1     0.1343
     11 C         0.795944   -1.707699   -4.185574 C.ar        1 UNL1     0.1007
     12 C         2.087977   -1.756746   -3.655454 C.ar        1 UNL1     0.1389
     13 C         2.346042   -2.457261   -2.462092 C.ar        1 UNL1     0.0229
     14 C         0.562465   -0.888336   -5.397302 C.2        1 UNL1     0.1740
     15 C         1.708439   -0.018569   -5.823679 C.3        1 UNL1     0.0520
     16 C         3.001076   -0.802812   -5.644766 C.3        1 UNL1     0.1322
     17 O         3.181702   -1.185456   -4.263452 O.3        1 UNL1     -0.4828
     18 C         3.171602   -1.946667   -6.647383 C.ar        1 UNL1     -0.0067
     19 C         4.155891   -2.929441   -6.415988 C.ar        1 UNL1     -0.0516
     20 C         4.370046   -3.962295   -7.336484 C.ar        1 UNL1     -0.0198
     21 C         3.613209   -4.019125   -8.493115 C.ar        1 UNL1     0.1169
     22 C         2.613765   -3.085084   -8.732947 C.ar        1 UNL1     -0.0198
     23 C         2.386906   -2.062747   -7.803745 C.ar        1 UNL1     -0.0516
     24 O         3.875836   -5.017619   -9.384427 O.3        1 UNL1     -0.5068
     25 O         -0.514495   -0.843629   -5.986066 O.2        1 UNL1     -0.2917
     26 O         -1.488611   -2.435112   -4.040094 O.3        1 UNL1     -0.5058
     27 O         -0.388391   -1.807869   -1.769377 O.3        1 UNL1     -0.3648
     28 O         -1.18378   -0.637448   1.55021 O.3        1 UNL1     -0.3841
     29 O         2.248735   -0.935725   0.560405 O.3        1 UNL1     -0.3863
     30 O         0.210937   -3.090815   2.729061 O.3        1 UNL1     -0.3829
     31 H         -1.857287   -1.863782   -0.421339 H        1 UNL1     0.0937
     32 H         0.0   0.0   0.0 H        1 UNL1     0.0671
     33 H         1.125197   -0.807979   2.235242 H        1 UNL1     0.0649
     34 H         2.112438   -3.138406   1.958372 H        1 UNL1     0.0683
     35 H         0.595711   -4.732952   0.876145 H        1 UNL1     0.1085
     36 H         -0.804329   -3.596152   -1.87421 H        1 UNL1     0.0691
     37 H         3.360774   -2.481015   -2.070625 H        1 UNL1     0.0691
     38 H         1.698411   0.875833   -5.191641 H        1 UNL1     0.0385
     39 H         1.554453   0.294564   -6.861954 H        1 UNL1     0.0385
     40 H         3.829963   -0.111557   -5.848806 H        1 UNL1     0.0789
     41 H         4.769319   -2.901732   -5.520114 H        1 UNL1     0.0623
     42 H         5.140147   -4.707334   -7.152434 H        1 UNL1     0.0654
     43 H         2.005102   -3.128931   -9.628221 H        1 UNL1     0.0654
     44 H         1.590792   -1.356311   -8.018214 H        1 UNL1     0.0623
     45 H         4.816902   -4.978583   -9.620196 H        1 UNL1     0.2921
     46 H         -1.84518   -3.335712   -3.98362 H        1 UNL1     0.2922
     47 H         -0.544329   -0.890434   -2.033679 H        1 UNL1     0.2126
     48 H         -2.051431   -0.852235   1.156786 H        1 UNL1     0.2101
     49 H         2.111702   -1.070059   -0.390895 H        1 UNL1     0.2100
     50 H         -0.604877   -3.496063   2.368597 H        1 UNL1     0.2102
@<TRIPOS>BOND
     1     1     2    1
     2     1     6    1
     3     2     3    1
     4     3     4    1
     5     3    29    1
     6     3    33    1
     7     4     5    1
     8     5     6    1
     9     5     7    1
    10     5    35    1
    11     7     8    1
    12     8     9   ar
    13     8    13   ar
    14     9    10   ar
    15     9    36    1
    16    10    11   ar
    17    10    26    1
    18    11    12   ar
    19    11    14    1
    20    12    13   ar
    21    12    17    1
    22    13    37    1
    23    14    15    1
    24    14    25    2
    25    15    16    1
    26    15    38    1
    27    15    39    1
    28    16    17    1
    29    16    18    1
    30    16    40    1
    31    18    19   ar
    32    18    23   ar
    33    19    20   ar
    34    19    41    1
    35    20    21   ar
    36    20    42    1
    37    21    22   ar
    38    21    24    1
    39    22    23   ar
    40    22    43    1
    41    23    44    1
    42    24    45    1
    43    26    46    1
    44    27    47    1
    45    28    48    1
    46    29    49    1
    47    30    50    1
    48     1    31    1
    49     1    27    1
    50     2    32    1
    51     2    28    1
    52     4    34    1
    53     4    30    1
