@<TRIPOS>MOLECULE
*****
 50 53 0 0 0
SMALL
GASTEIGER

@<TRIPOS>ATOM
     1 C         -0.828186   -2.021116   -0.001162 C.3        1 UNL1     0.1889
     2 C         -0.311471   -0.753744   -0.733769 C.3        1 UNL1     0.1342
     3 C         -1.317914   -0.120243   -1.706504 C.3        1 UNL1     0.1174
     4 C         -2.195937   -1.157505   -2.410977 C.3        1 UNL1     0.1456
     5 C         -2.766704   -2.205814   -1.438538 C.3        1 UNL1     0.2326
     6 O         -1.703561   -2.855531   -0.745384 O.3        1 UNL1     -0.3076
     7 O         -3.778277   -1.681344   -0.55935 O.3        1 UNL1     -0.4605
     8 C         -3.518466   -0.439049   -0.009143 C.ar        1 UNL1     0.1310
     9 C         -3.21048   0.7188   -0.731522 C.ar        1 UNL1     0.0226
     10 C         -2.979504   1.937188   -0.081844 C.ar        1 UNL1     0.1343
     11 C         -3.074431   2.032621   1.30586 C.ar        1 UNL1     0.1007
     12 C         -3.340918   0.874397   2.040901 C.ar        1 UNL1     0.1389
     13 C         -3.570519   -0.351126   1.387596 C.ar        1 UNL1     0.0229
     14 C         -2.922829   3.31172   2.037349 C.2        1 UNL1     0.1740
     15 C         -3.275894   3.271756   3.495189 C.3        1 UNL1     0.0520
     16 C         -2.754829   1.966887   4.081505 C.3        1 UNL1     0.1322
     17 O         -3.350593   0.83156   3.415797 O.3        1 UNL1     -0.4828
     18 C         -1.229532   1.907651   4.194129 C.ar        1 UNL1     -0.0067
     19 C         -0.640494   1.46941   5.397953 C.ar        1 UNL1     -0.0516
     20 C         0.750969   1.448175   5.550735 C.ar        1 UNL1     -0.0198
     21 C         1.562278   1.868678   4.512091 C.ar        1 UNL1     0.1169
     22 C         1.01277   2.274018   3.30272 C.ar        1 UNL1     -0.0198
     23 C         -0.378128   2.27787   3.143204 C.ar        1 UNL1     -0.0516
     24 O         2.91169   1.869881   4.710809 O.3        1 UNL1     -0.5068
     25 O         -2.608665   4.367798   1.494682 O.2        1 UNL1     -0.2917
     26 O         -2.682511   3.029011   -0.844276 O.3        1 UNL1     -0.5058
     27 O         -1.33481   -1.756461   1.297328 O.3        1 UNL1     -0.3648
     28 O         0.855077   -1.112179   -1.497574 O.3        1 UNL1     -0.3841
     29 O         -2.079317   0.899034   -1.055757 O.3        1 UNL1     -0.3863
     30 O         -1.413111   -1.835727   -3.417401 O.3        1 UNL1     -0.3829
     31 H         0.045148   -2.65859   0.17489 H        1 UNL1     0.0937
     32 H         0.0   0.0   0.0 H        1 UNL1     0.0671
     33 H         -0.746868   0.397406   -2.489872 H        1 UNL1     0.0649
     34 H         -3.021639   -0.658085   -2.929819 H        1 UNL1     0.0683
     35 H         -3.223802   -2.95563   -2.09635 H        1 UNL1     0.1085
     36 H         -3.176872   0.72257   -1.815486 H        1 UNL1     0.0691
     37 H         -3.774988   -1.23853   1.982743 H        1 UNL1     0.0691
     38 H         -4.36664   3.332231   3.573561 H        1 UNL1     0.0385
     39 H         -2.848083   4.149052   3.992288 H        1 UNL1     0.0385
     40 H         -3.125045   1.90521   5.113811 H        1 UNL1     0.0789
     41 H         -1.255785   1.142971   6.231322 H        1 UNL1     0.0623
     42 H         1.192824   1.119361   6.488103 H        1 UNL1     0.0654
     43 H         1.639328   2.591047   2.477597 H        1 UNL1     0.0654
     44 H         -0.772756   2.590604   2.181273 H        1 UNL1     0.0623
     45 H         3.0809   1.885992   5.666751 H        1 UNL1     0.2921
     46 H         -3.205586   3.787668   -0.540559 H        1 UNL1     0.2922
     47 H         -2.009875   -1.06461   1.258747 H        1 UNL1     0.2126
     48 H         0.736162   -0.727049   -2.387106 H        1 UNL1     0.2101
     49 H         -1.533663   1.342123   -0.386633 H        1 UNL1     0.2100
     50 H         -0.627751   -1.283235   -3.611499 H        1 UNL1     0.2102
@<TRIPOS>BOND
     1     1     2    1
     2     1     6    1
     3     2     3    1
     4     3     4    1
     5     3    29    1
     6     3    33    1
     7     4     5    1
     8     5     6    1
     9     5     7    1
    10     5    35    1
    11     7     8    1
    12     8     9   ar
    13     8    13   ar
    14     9    10   ar
    15     9    36    1
    16    10    11   ar
    17    10    26    1
    18    11    12   ar
    19    11    14    1
    20    12    13   ar
    21    12    17    1
    22    13    37    1
    23    14    15    1
    24    14    25    2
    25    15    16    1
    26    15    38    1
    27    15    39    1
    28    16    17    1
    29    16    18    1
    30    16    40    1
    31    18    19   ar
    32    18    23   ar
    33    19    20   ar
    34    19    41    1
    35    20    21   ar
    36    20    42    1
    37    21    22   ar
    38    21    24    1
    39    22    23   ar
    40    22    43    1
    41    23    44    1
    42    24    45    1
    43    26    46    1
    44    27    47    1
    45    28    48    1
    46    29    49    1
    47    30    50    1
    48     1    31    1
    49     1    27    1
    50     2    32    1
    51     2    28    1
    52     4    34    1
    53     4    30    1
