@<TRIPOS>MOLECULE
*****
 50 53 0 0 0
SMALL
GASTEIGER

@<TRIPOS>ATOM
     1 C         -0.427031   -1.74919   -1.236439 C.3        1 UNL1     0.1889
     2 C         -0.704885   -0.28871   -0.789522 C.3        1 UNL1     0.1342
     3 C         -2.138238   -0.029295   -0.300985 C.3        1 UNL1     0.1174
     4 C         -3.181951   -0.853205   -1.059241 C.3        1 UNL1     0.1456
     5 C         -2.776078   -2.331339   -1.203291 C.3        1 UNL1     0.2326
     6 O         -1.511195   -2.426855   -1.854302 O.3        1 UNL1     -0.3076
     7 O         -2.832512   -3.064457   0.033913 O.3        1 UNL1     -0.4605
     8 C         -2.018658   -4.180058   0.115167 C.ar        1 UNL1     0.1310
     9 C         -1.740666   -4.896923   1.283981 C.ar        1 UNL1     0.0226
     10 C         -0.915013   -6.027256   1.260634 C.ar        1 UNL1     0.1343
     11 C         -0.365961   -6.482533   0.062674 C.ar        1 UNL1     0.1007
     12 C         -0.603087   -5.75121   -1.104254 C.ar        1 UNL1     0.1389
     13 C         -1.431165   -4.613171   -1.080068 C.ar        1 UNL1     0.0229
     14 C         0.444639   -7.718605   -0.033281 C.2        1 UNL1     0.1740
     15 C         0.765101   -8.178467   -1.425179 C.3        1 UNL1     0.0520
     16 C         1.094839   -6.957067   -2.272181 C.3        1 UNL1     0.1322
     17 O         -0.025988   -6.046702   -2.317476 O.3        1 UNL1     -0.4828
     18 C         2.430658   -6.301282   -1.914049 C.ar        1 UNL1     -0.0067
     19 C         2.76563   -6.107722   -0.558121 C.ar        1 UNL1     -0.0516
     20 C         3.957629   -5.46851   -0.196862 C.ar        1 UNL1     -0.0198
     21 C         4.817623   -5.012735   -1.179973 C.ar        1 UNL1     0.1169
     22 C         4.531346   -5.218394   -2.523323 C.ar        1 UNL1     -0.0198
     23 C         3.348236   -5.874001   -2.884552 C.ar        1 UNL1     -0.0516
     24 O         5.950923   -4.361193   -0.79071 O.3        1 UNL1     -0.5068
     25 O         0.777122   -8.386531   0.942329 O.2        1 UNL1     -0.2917
     26 O         -0.682568   -6.681077   2.435399 O.3        1 UNL1     -0.5058
     27 O         0.18105   -2.542522   -0.229639 O.3        1 UNL1     -0.3648
     28 O         -0.469807   0.583804   -1.910309 O.3        1 UNL1     -0.3841
     29 O         -2.228098   -0.191299   1.115988 O.3        1 UNL1     -0.3863
     30 O         -3.362994   -0.291091   -2.377172 O.3        1 UNL1     -0.3829
     31 H         0.326808   -1.695606   -2.029493 H        1 UNL1     0.0937
     32 H         0.0   0.0   0.0 H        1 UNL1     0.0671
     33 H         -2.370376   1.028281   -0.489042 H        1 UNL1     0.0649
     34 H         -4.149546   -0.791928   -0.548939 H        1 UNL1     0.0683
     35 H         -3.52213   -2.744431   -1.893682 H        1 UNL1     0.1085
     36 H         -2.18196   -4.626858   2.237105 H        1 UNL1     0.0691
     37 H         -1.599199   -4.060624   -2.001995 H        1 UNL1     0.0691
     38 H         -0.115943   -8.701376   -1.812289 H        1 UNL1     0.0385
     39 H         1.595848   -8.891246   -1.385365 H        1 UNL1     0.0385
     40 H         1.209541   -7.303083   -3.308345 H        1 UNL1     0.0789
     41 H         2.103027   -6.448159   0.232266 H        1 UNL1     0.0623
     42 H         4.199016   -5.314592   0.851973 H        1 UNL1     0.0654
     43 H         5.205002   -4.878918   -3.301046 H        1 UNL1     0.0654
     44 H         3.161589   -6.027022   -3.943133 H        1 UNL1     0.0623
     45 H         5.703883   -3.667599   -0.157769 H        1 UNL1     0.2921
     46 H         -1.222605   -7.486428   2.469771 H        1 UNL1     0.2922
     47 H         0.461113   -3.392584   -0.596815 H        1 UNL1     0.2126
     48 H         -1.254867   1.159738   -1.985887 H        1 UNL1     0.2101
     49 H         -3.159625   -0.213213   1.387228 H        1 UNL1     0.2100
     50 H         -2.586375   -0.539495   -2.920193 H        1 UNL1     0.2102
@<TRIPOS>BOND
     1     1     2    1
     2     1     6    1
     3     2     3    1
     4     3     4    1
     5     3    29    1
     6     3    33    1
     7     4     5    1
     8     5     6    1
     9     5     7    1
    10     5    35    1
    11     7     8    1
    12     8     9   ar
    13     8    13   ar
    14     9    10   ar
    15     9    36    1
    16    10    11   ar
    17    10    26    1
    18    11    12   ar
    19    11    14    1
    20    12    13   ar
    21    12    17    1
    22    13    37    1
    23    14    15    1
    24    14    25    2
    25    15    16    1
    26    15    38    1
    27    15    39    1
    28    16    17    1
    29    16    18    1
    30    16    40    1
    31    18    19   ar
    32    18    23   ar
    33    19    20   ar
    34    19    41    1
    35    20    21   ar
    36    20    42    1
    37    21    22   ar
    38    21    24    1
    39    22    23   ar
    40    22    43    1
    41    23    44    1
    42    24    45    1
    43    26    46    1
    44    27    47    1
    45    28    48    1
    46    29    49    1
    47    30    50    1
    48     1    31    1
    49     1    27    1
    50     2    32    1
    51     2    28    1
    52     4    34    1
    53     4    30    1
