@<TRIPOS>MOLECULE
*****
 50 53 0 0 0
SMALL
GASTEIGER

@<TRIPOS>ATOM
     1 C         -0.336278   -1.331678   1.698339 C.3        1 UNL1     0.1889
     2 C         -0.464757   -0.974844   0.192981 C.3        1 UNL1     0.1342
     3 C         -1.90513   -0.957851   -0.341343 C.3        1 UNL1     0.1174
     4 C         -2.794291   -2.016742   0.31536 C.3        1 UNL1     0.1456
     5 C         -2.643968   -2.046093   1.847321 C.3        1 UNL1     0.2326
     6 O         -1.279837   -2.268014   2.197704 O.3        1 UNL1     -0.3076
     7 O         -3.216895   -0.899352   2.501584 O.3        1 UNL1     -0.4605
     8 C         -3.72834   -1.116792   3.76834 C.ar        1 UNL1     0.1310
     9 C         -4.547476   -2.188845   4.138498 C.ar        1 UNL1     0.0226
     10 C         -5.002047   -2.331468   5.454905 C.ar        1 UNL1     0.1343
     11 C         -4.62862   -1.417596   6.439401 C.ar        1 UNL1     0.1007
     12 C         -3.844625   -0.320373   6.073018 C.ar        1 UNL1     0.1389
     13 C         -3.389861   -0.175749   4.748743 C.ar        1 UNL1     0.0229
     14 C         -5.011005   -1.566095   7.862736 C.2        1 UNL1     0.1740
     15 C         -4.340859   -0.621727   8.817002 C.3        1 UNL1     0.0520
     16 C         -4.267829   0.751715   8.1641 C.3        1 UNL1     0.1322
     17 O         -3.50818   0.696196   6.936533 O.3        1 UNL1     -0.4828
     18 C         -5.62539   1.447507   8.039088 C.ar        1 UNL1     -0.0067
     19 C         -6.000822   2.01669   6.80487 C.ar        1 UNL1     -0.0516
     20 C         -7.214406   2.701342   6.669121 C.ar        1 UNL1     -0.0198
     21 C         -8.056034   2.829765   7.759533 C.ar        1 UNL1     0.1169
     22 C         -7.729377   2.251361   8.979198 C.ar        1 UNL1     -0.0198
     23 C         -6.524359   1.550797   9.110339 C.ar        1 UNL1     -0.0516
     24 O         -9.211953   3.535882   7.599375 O.3        1 UNL1     -0.5068
     25 O         -5.762182   -2.447115   8.272641 O.2        1 UNL1     -0.2917
     26 O         -5.799056   -3.398723   5.750417 O.3        1 UNL1     -0.5058
     27 O         -0.229131   -0.195712   2.541482 O.3        1 UNL1     -0.3648
     28 O         0.264221   -1.953055   -0.57148 O.3        1 UNL1     -0.3841
     29 O         -2.459724   0.356811   -0.262467 O.3        1 UNL1     -0.3863
     30 O         -2.449202   -3.317046   -0.209818 O.3        1 UNL1     -0.3829
     31 H         0.623154   -1.846953   1.816912 H        1 UNL1     0.0937
     32 H         0.0   0.0   0.0 H        1 UNL1     0.0671
     33 H         -1.867787   -1.194903   -1.413785 H        1 UNL1     0.0649
     34 H         -3.84381   -1.835464   0.058359 H        1 UNL1     0.0683
     35 H         -3.20091   -2.941461   2.150655 H        1 UNL1     0.1085
     36 H         -4.826997   -2.963163   3.432509 H        1 UNL1     0.0691
     37 H         -2.781614   0.687961   4.488869 H        1 UNL1     0.0691
     38 H         -3.339598   -1.014641   9.023449 H        1 UNL1     0.0385
     39 H         -4.901885   -0.603742   9.757589 H        1 UNL1     0.0385
     40 H         -3.672085   1.393908   8.826819 H        1 UNL1     0.0789
     41 H         -5.353473   1.937544   5.93635 H        1 UNL1     0.0623
     42 H         -7.487181   3.146098   5.715289 H        1 UNL1     0.0654
     43 H         -8.388099   2.332964   9.835549 H        1 UNL1     0.0654
     44 H         -6.306046   1.102625   10.074873 H        1 UNL1     0.0623
     45 H         -8.983378   4.44561   7.348644 H        1 UNL1     0.2921
     46 H         -5.397725   -3.913185   6.468521 H        1 UNL1     0.2922
     47 H         0.513603   0.358467   2.263828 H        1 UNL1     0.2126
     48 H         1.199835   -1.878264   -0.30173 H        1 UNL1     0.2101
     49 H         -2.019178   0.939699   -0.901181 H        1 UNL1     0.2100
     50 H         -2.681726   -3.329296   -1.161393 H        1 UNL1     0.2102
@<TRIPOS>BOND
     1     1     2    1
     2     1     6    1
     3     2     3    1
     4     3     4    1
     5     3    29    1
     6     3    33    1
     7     4     5    1
     8     5     6    1
     9     5     7    1
    10     5    35    1
    11     7     8    1
    12     8     9   ar
    13     8    13   ar
    14     9    10   ar
    15     9    36    1
    16    10    11   ar
    17    10    26    1
    18    11    12   ar
    19    11    14    1
    20    12    13   ar
    21    12    17    1
    22    13    37    1
    23    14    15    1
    24    14    25    2
    25    15    16    1
    26    15    38    1
    27    15    39    1
    28    16    17    1
    29    16    18    1
    30    16    40    1
    31    18    19   ar
    32    18    23   ar
    33    19    20   ar
    34    19    41    1
    35    20    21   ar
    36    20    42    1
    37    21    22   ar
    38    21    24    1
    39    22    23   ar
    40    22    43    1
    41    23    44    1
    42    24    45    1
    43    26    46    1
    44    27    47    1
    45    28    48    1
    46    29    49    1
    47    30    50    1
    48     1    31    1
    49     1    27    1
    50     2    32    1
    51     2    28    1
    52     4    34    1
    53     4    30    1
