@<TRIPOS>MOLECULE
*****
 50 53 0 0 0
SMALL
GASTEIGER

@<TRIPOS>ATOM
     1 C         0.17297   -0.898154   -1.983483 C.3        1 UNL1     0.1889
     2 C         0.529991   -0.835462   -0.473998 C.3        1 UNL1     0.1342
     3 C         2.031787   -0.710463   -0.174916 C.3        1 UNL1     0.1174
     4 C         2.902139   -1.470689   -1.17874 C.3        1 UNL1     0.1456
     5 C         2.481736   -1.214264   -2.637462 C.3        1 UNL1     0.2326
     6 O         1.110969   -1.563147   -2.816752 O.3        1 UNL1     -0.3076
     7 O         2.792826   0.113034   -3.098792 O.3        1 UNL1     -0.4605
     8 C         2.158043   0.515506   -4.260082 C.ar        1 UNL1     0.1310
     9 C         2.780814   1.125351   -5.354407 C.ar        1 UNL1     0.0226
     10 C         2.052413   1.481669   -6.495622 C.ar        1 UNL1     0.1343
     11 C         0.686554   1.21487   -6.579816 C.ar        1 UNL1     0.1007
     12 C         0.045779   0.643613   -5.477157 C.ar        1 UNL1     0.1389
     13 C         0.777908   0.28784   -4.328748 C.ar        1 UNL1     0.0229
     14 C         -0.115085   1.493626   -7.793827 C.2        1 UNL1     0.1740
     15 C         -1.51022   0.941228   -7.791634 C.3        1 UNL1     0.0520
     16 C         -2.101231   1.130682   -6.401393 C.3        1 UNL1     0.1322
     17 O         -1.312472   0.436487   -5.409918 O.3        1 UNL1     -0.4828
     18 C         -2.411662   2.589451   -6.057374 C.ar        1 UNL1     -0.0067
     19 C         -3.740136   2.966039   -5.771801 C.ar        1 UNL1     -0.0516
     20 C         -4.065911   4.300163   -5.499869 C.ar        1 UNL1     -0.0198
     21 C         -3.075736   5.266115   -5.517653 C.ar        1 UNL1     0.1169
     22 C         -1.752959   4.92096   -5.76254 C.ar        1 UNL1     -0.0198
     23 C         -1.423965   3.584018   -6.01632 C.ar        1 UNL1     -0.0516
     24 O         -3.436816   6.560755   -5.285424 O.3        1 UNL1     -0.5068
     25 O         0.333471   2.066185   -8.783503 O.2        1 UNL1     -0.2917
     26 O         2.719254   2.074358   -7.527915 O.3        1 UNL1     -0.5058
     27 O         -0.213243   0.35474   -2.525593 O.3        1 UNL1     -0.3648
     28 O         0.067207   -2.04508   0.154779 O.3        1 UNL1     -0.3841
     29 O         2.409869   0.66122   -0.041985 O.3        1 UNL1     -0.3863
     30 O         2.807761   -2.886632   -0.910625 O.3        1 UNL1     -0.3829
     31 H         -0.727184   -1.516937   -2.066599 H        1 UNL1     0.0937
     32 H         0.0   0.0   0.0 H        1 UNL1     0.0671
     33 H         2.216086   -1.160723   0.810488 H        1 UNL1     0.0649
     34 H         3.953294   -1.189544   -1.050553 H        1 UNL1     0.0683
     35 H         3.072807   -1.936832   -3.214012 H        1 UNL1     0.1085
     36 H         3.849564   1.308498   -5.373114 H        1 UNL1     0.0691
     37 H         0.255337   -0.154546   -3.483345 H        1 UNL1     0.0691
     38 H         -1.446396   -0.120607   -8.052325 H        1 UNL1     0.0385
     39 H         -2.098272   1.448348   -8.564165 H        1 UNL1     0.0385
     40 H         -3.071755   0.616426   -6.389404 H        1 UNL1     0.0789
     41 H         -4.536988   2.228099   -5.760732 H        1 UNL1     0.0623
     42 H         -5.095912   4.579872   -5.292813 H        1 UNL1     0.0654
     43 H         -0.967312   5.667061   -5.764053 H        1 UNL1     0.0654
     44 H         -0.378927   3.348528   -6.193197 H        1 UNL1     0.0623
     45 H         -2.789013   6.955885   -4.679669 H        1 UNL1     0.2921
     46 H         2.504551   3.020284   -7.551105 H        1 UNL1     0.2922
     47 H         0.511469   0.990846   -2.447988 H        1 UNL1     0.2126
     48 H         -0.678214   -2.372979   -0.38426 H        1 UNL1     0.2101
     49 H         2.761952   0.821735   0.847996 H        1 UNL1     0.2100
     50 H         2.216863   -3.282349   -1.584391 H        1 UNL1     0.2102
@<TRIPOS>BOND
     1     1     2    1
     2     1     6    1
     3     2     3    1
     4     3     4    1
     5     3    29    1
     6     3    33    1
     7     4     5    1
     8     5     6    1
     9     5     7    1
    10     5    35    1
    11     7     8    1
    12     8     9   ar
    13     8    13   ar
    14     9    10   ar
    15     9    36    1
    16    10    11   ar
    17    10    26    1
    18    11    12   ar
    19    11    14    1
    20    12    13   ar
    21    12    17    1
    22    13    37    1
    23    14    15    1
    24    14    25    2
    25    15    16    1
    26    15    38    1
    27    15    39    1
    28    16    17    1
    29    16    18    1
    30    16    40    1
    31    18    19   ar
    32    18    23   ar
    33    19    20   ar
    34    19    41    1
    35    20    21   ar
    36    20    42    1
    37    21    22   ar
    38    21    24    1
    39    22    23   ar
    40    22    43    1
    41    23    44    1
    42    24    45    1
    43    26    46    1
    44    27    47    1
    45    28    48    1
    46    29    49    1
    47    30    50    1
    48     1    31    1
    49     1    27    1
    50     2    32    1
    51     2    28    1
    52     4    34    1
    53     4    30    1
