@<TRIPOS>MOLECULE
*****
 50 53 0 0 0
SMALL
GASTEIGER

@<TRIPOS>ATOM
     1 C         -0.175761   -2.138644   -0.407571 C.3        1 UNL1     0.1889
     2 C         -0.369773   -0.899648   0.507409 C.3        1 UNL1     0.1342
     3 C         0.300536   -1.008954   1.885525 C.3        1 UNL1     0.1174
     4 C         0.281874   -2.434354   2.443201 C.3        1 UNL1     0.1456
     5 C         0.71113   -3.482   1.399869 C.3        1 UNL1     0.2326
     6 O         -0.128493   -3.395938   0.250741 O.3        1 UNL1     -0.3076
     7 O         2.113664   -3.432085   1.080921 O.3        1 UNL1     -0.4605
     8 C         2.982065   -3.480445   2.156592 C.ar        1 UNL1     0.1310
     9 C         3.179726   -4.587122   2.989357 C.ar        1 UNL1     0.0226
     10 C         4.097213   -4.543176   4.045855 C.ar        1 UNL1     0.1343
     11 C         4.857367   -3.39826   4.280748 C.ar        1 UNL1     0.1007
     12 C         4.639237   -2.272977   3.481411 C.ar        1 UNL1     0.1389
     13 C         3.714744   -2.316537   2.420823 C.ar        1 UNL1     0.0229
     14 C         5.900516   -3.325436   5.329886 C.2        1 UNL1     0.1740
     15 C         6.770531   -2.103338   5.296712 C.3        1 UNL1     0.0520
     16 C         5.896986   -0.898645   4.974856 C.3        1 UNL1     0.1322
     17 O         5.253346   -1.060149   3.691612 O.3        1 UNL1     -0.4828
     18 C         4.953315   -0.500343   6.112205 C.ar        1 UNL1     -0.0067
     19 C         4.830316   -1.341911   7.23686 C.ar        1 UNL1     -0.0516
     20 C         3.941176   -1.031263   8.272664 C.ar        1 UNL1     -0.0198
     21 C         3.165845   0.111649   8.192407 C.ar        1 UNL1     0.1169
     22 C         3.288859   0.977434   7.113462 C.ar        1 UNL1     -0.0198
     23 C         4.19133   0.676561   6.086292 C.ar        1 UNL1     -0.0516
     24 O         2.283669   0.36185   9.202143 O.3        1 UNL1     -0.5068
     25 O         6.11357   -4.227891   6.135285 O.2        1 UNL1     -0.2917
     26 O         4.241959   -5.656173   4.821659 O.3        1 UNL1     -0.5058
     27 O         0.885976   -1.99407   -1.33741 O.3        1 UNL1     -0.3648
     28 O         -1.77987   -0.713676   0.730449 O.3        1 UNL1     -0.3841
     29 O         1.61229   -0.442687   1.857685 O.3        1 UNL1     -0.3863
     30 O         -1.053384   -2.748996   2.894617 O.3        1 UNL1     -0.3829
     31 H         -1.073101   -2.21007   -1.031876 H        1 UNL1     0.0937
     32 H         0.0   0.0   0.0 H        1 UNL1     0.0671
     33 H         -0.271469   -0.385721   2.587031 H        1 UNL1     0.0649
     34 H         0.939957   -2.502922   3.316485 H        1 UNL1     0.0683
     35 H         0.49225   -4.442181   1.883627 H        1 UNL1     0.1085
     36 H         2.660455   -5.524821   2.824435 H        1 UNL1     0.0691
     37 H         3.562566   -1.426636   1.813853 H        1 UNL1     0.0691
     38 H         7.530069   -2.258427   4.523035 H        1 UNL1     0.0385
     39 H         7.280352   -1.999411   6.260589 H        1 UNL1     0.0385
     40 H         6.567703   -0.039397   4.839384 H        1 UNL1     0.0789
     41 H         5.421101   -2.249564   7.31926 H        1 UNL1     0.0623
     42 H         3.846739   -1.694366   9.129045 H        1 UNL1     0.0654
     43 H         2.697465   1.882886   7.047742 H        1 UNL1     0.0654
     44 H         4.269236   1.380741   5.263549 H        1 UNL1     0.0623
     45 H         1.568839   0.919006   8.853843 H        1 UNL1     0.2921
     46 H         4.95564   -5.512802   5.463154 H        1 UNL1     0.2922
     47 H         0.539321   -1.969219   -2.240224 H        1 UNL1     0.2126
     48 H         -1.900133   -0.616873   1.694761 H        1 UNL1     0.2101
     49 H         2.12161   -0.752048   2.623638 H        1 UNL1     0.2100
     50 H         -1.040572   -3.655824   3.265039 H        1 UNL1     0.2102
@<TRIPOS>BOND
     1     1     2    1
     2     1     6    1
     3     2     3    1
     4     3     4    1
     5     3    29    1
     6     3    33    1
     7     4     5    1
     8     5     6    1
     9     5     7    1
    10     5    35    1
    11     7     8    1
    12     8     9   ar
    13     8    13   ar
    14     9    10   ar
    15     9    36    1
    16    10    11   ar
    17    10    26    1
    18    11    12   ar
    19    11    14    1
    20    12    13   ar
    21    12    17    1
    22    13    37    1
    23    14    15    1
    24    14    25    2
    25    15    16    1
    26    15    38    1
    27    15    39    1
    28    16    17    1
    29    16    18    1
    30    16    40    1
    31    18    19   ar
    32    18    23   ar
    33    19    20   ar
    34    19    41    1
    35    20    21   ar
    36    20    42    1
    37    21    22   ar
    38    21    24    1
    39    22    23   ar
    40    22    43    1
    41    23    44    1
    42    24    45    1
    43    26    46    1
    44    27    47    1
    45    28    48    1
    46    29    49    1
    47    30    50    1
    48     1    31    1
    49     1    27    1
    50     2    32    1
    51     2    28    1
    52     4    34    1
    53     4    30    1
