@<TRIPOS>MOLECULE
*****
 50 53 0 0 0
SMALL
GASTEIGER

@<TRIPOS>ATOM
     1 C         -0.353818   -1.342794   1.685978 C.3        1 UNL1     0.1889
     2 C         -0.469344   -0.974706   0.182281 C.3        1 UNL1     0.1342
     3 C         -1.905417   -0.949215   -0.363163 C.3        1 UNL1     0.1174
     4 C         -2.803058   -2.00994   0.278884 C.3        1 UNL1     0.1456
     5 C         -2.664858   -2.050819   1.811722 C.3        1 UNL1     0.2326
     6 O         -1.30423   -2.279658   2.171155 O.3        1 UNL1     -0.3076
     7 O         -3.239266   -0.906981   2.469759 O.3        1 UNL1     -0.4605
     8 C         -3.768101   -1.133507   3.727752 C.ar        1 UNL1     0.1310
     9 C         -4.598236   -2.204095   4.077063 C.ar        1 UNL1     0.0226
     10 C         -5.070391   -2.35663   5.386148 C.ar        1 UNL1     0.1343
     11 C         -4.704132   -1.454558   6.384126 C.ar        1 UNL1     0.1007
     12 C         -3.909033   -0.358626   6.038389 C.ar        1 UNL1     0.1389
     13 C         -3.436572   -0.204014   4.721458 C.ar        1 UNL1     0.0229
     14 C         -5.105506   -1.614436   7.800986 C.2        1 UNL1     0.1740
     15 C         -4.44199   -0.683376   8.7728 C.3        1 UNL1     0.0520
     16 C         -4.352495   0.695822   8.134237 C.3        1 UNL1     0.1322
     17 O         -3.5776   0.647526   6.915929 O.3        1 UNL1     -0.4828
     18 C         -5.704199   1.400993   7.998764 C.ar        1 UNL1     -0.0067
     19 C         -6.054162   1.997255   6.769858 C.ar        1 UNL1     -0.0516
     20 C         -7.261773   2.690769   6.626056 C.ar        1 UNL1     -0.0198
     21 C         -8.122685   2.801156   7.703308 C.ar        1 UNL1     0.1169
     22 C         -7.821264   2.196224   8.916585 C.ar        1 UNL1     -0.0198
     23 C         -6.62221   1.48694   9.055298 C.ar        1 UNL1     -0.0516
     24 O         -9.272089   3.516334   7.536601 O.3        1 UNL1     -0.5068
     25 O         -5.867061   -2.494798   8.192755 O.2        1 UNL1     -0.2917
     26 O         -5.877421   -3.421835   5.66115 O.3        1 UNL1     -0.5058
     27 O         -0.249693   -0.213288   2.538128 O.3        1 UNL1     -0.3648
     28 O         0.262509   -1.949727   -0.583508 O.3        1 UNL1     -0.3841
     29 O         -2.456445   0.366626   -0.279123 O.3        1 UNL1     -0.3863
     30 O         -2.457978   -3.30753   -0.25297 O.3        1 UNL1     -0.3829
     31 H         0.603017   -1.862003   1.808326 H        1 UNL1     0.0937
     32 H         0.0   0.0   0.0 H        1 UNL1     0.0671
     33 H         -1.860408   -1.17865   -1.436967 H        1 UNL1     0.0649
     34 H         -3.849947   -1.82343   0.014994 H        1 UNL1     0.0683
     35 H         -3.226999   -2.946548   2.104202 H        1 UNL1     0.1085
     36 H         -4.873322   -2.969872   3.360102 H        1 UNL1     0.0691
     37 H         -2.819948   0.658459   4.477718 H        1 UNL1     0.0691
     38 H         -3.445791   -1.084315   8.988115 H        1 UNL1     0.0385
     39 H         -5.014846   -0.671051   9.706322 H        1 UNL1     0.0385
     40 H         -3.761449   1.327984   8.810665 H        1 UNL1     0.0789
     41 H         -5.391339   1.932588   5.911875 H        1 UNL1     0.0623
     42 H         -7.514844   3.156362   5.676746 H        1 UNL1     0.0654
     43 H         -8.495223   2.263655   9.762246 H        1 UNL1     0.0654
     44 H         -6.423803   1.017992   10.014239 H        1 UNL1     0.0623
     45 H         -9.034589   4.435632   7.33362 H        1 UNL1     0.2921
     46 H         -5.488337   -3.945608   6.379263 H        1 UNL1     0.2922
     47 H         0.492742   0.344062   2.266079 H        1 UNL1     0.2126
     48 H         1.200072   -1.862392   -0.324508 H        1 UNL1     0.2101
     49 H         -2.014743   0.95067   -0.915979 H        1 UNL1     0.2100
     50 H         -2.688303   -3.314082   -1.205136 H        1 UNL1     0.2102
@<TRIPOS>BOND
     1     1     2    1
     2     1     6    1
     3     2     3    1
     4     3     4    1
     5     3    29    1
     6     3    33    1
     7     4     5    1
     8     5     6    1
     9     5     7    1
    10     5    35    1
    11     7     8    1
    12     8     9   ar
    13     8    13   ar
    14     9    10   ar
    15     9    36    1
    16    10    11   ar
    17    10    26    1
    18    11    12   ar
    19    11    14    1
    20    12    13   ar
    21    12    17    1
    22    13    37    1
    23    14    15    1
    24    14    25    2
    25    15    16    1
    26    15    38    1
    27    15    39    1
    28    16    17    1
    29    16    18    1
    30    16    40    1
    31    18    19   ar
    32    18    23   ar
    33    19    20   ar
    34    19    41    1
    35    20    21   ar
    36    20    42    1
    37    21    22   ar
    38    21    24    1
    39    22    23   ar
    40    22    43    1
    41    23    44    1
    42    24    45    1
    43    26    46    1
    44    27    47    1
    45    28    48    1
    46    29    49    1
    47    30    50    1
    48     1    31    1
    49     1    27    1
    50     2    32    1
    51     2    28    1
    52     4    34    1
    53     4    30    1
