@<TRIPOS>MOLECULE
*****
 50 53 0 0 0
SMALL
GASTEIGER

@<TRIPOS>ATOM
     1 C         -0.01565   -1.120151   1.875053 C.3        1 UNL1     0.1889
     2 C         -0.27326   -1.003672   0.348616 C.3        1 UNL1     0.1342
     3 C         -1.71576   -1.308713   -0.083369 C.3        1 UNL1     0.1174
     4 C         -2.370291   -2.402681   0.763946 C.3        1 UNL1     0.1456
     5 C         -2.14876   -2.192321   2.272931 C.3        1 UNL1     0.2326
     6 O         -0.752661   -2.125826   2.554631 O.3        1 UNL1     -0.3076
     7 O         -2.88823   -1.081237   2.811445 O.3        1 UNL1     -0.4605
     8 C         -3.301708   -1.208027   4.125404 C.ar        1 UNL1     0.1310
     9 C         -3.903124   -2.343068   4.679733 C.ar        1 UNL1     0.0226
     10 C         -4.27187   -2.380433   6.029746 C.ar        1 UNL1     0.1343
     11 C         -4.026194   -1.291243   6.864701 C.ar        1 UNL1     0.1007
     12 C         -3.463629   -0.137082   6.313143 C.ar        1 UNL1     0.1389
     13 C         -3.095363   -0.098799   4.955076 C.ar        1 UNL1     0.0229
     14 C         -4.318594   -1.307565   8.31673 C.2        1 UNL1     0.1740
     15 C         -3.787708   -0.142389   9.099082 C.3        1 UNL1     0.0520
     16 C         -3.984677   1.121847   8.273935 C.3        1 UNL1     0.1322
     17 O         -3.277335   1.029631   7.017658 O.3        1 UNL1     -0.4828
     18 C         -5.447663   1.553746   8.147991 C.ar        1 UNL1     -0.0067
     19 C         -5.963118   1.892227   6.879941 C.ar        1 UNL1     -0.0516
     20 C         -7.282924   2.336568   6.736294 C.ar        1 UNL1     -0.0198
     21 C         -8.093285   2.453492   7.851405 C.ar        1 UNL1     0.1169
     22 C         -7.624703   2.095833   9.108922 C.ar        1 UNL1     -0.0198
     23 C         -6.310673   1.633899   9.250344 C.ar        1 UNL1     -0.0516
     24 O         -9.361076   2.925656   7.67772 O.3        1 UNL1     -0.5068
     25 O         -4.885291   -2.23921   8.881865 O.2        1 UNL1     -0.2917
     26 O         -4.855385   -3.517184   6.508173 O.3        1 UNL1     -0.5058
     27 O         -0.076384   0.123452   2.555163 O.3        1 UNL1     -0.3648
     28 O         0.584412   -1.938939   -0.33137 O.3        1 UNL1     -0.3841
     29 O         -2.493071   -0.110781   -0.136995 O.3        1 UNL1     -0.3863
     30 O         -1.821413   -3.68468   0.388578 O.3        1 UNL1     -0.3829
     31 H         1.024973   -1.441487   1.993056 H        1 UNL1     0.0937
     32 H         0.0   0.0   0.0 H        1 UNL1     0.0671
     33 H         -1.684517   -1.682731   -1.116256 H        1 UNL1     0.0649
     34 H         -3.445733   -2.441813   0.558291 H        1 UNL1     0.0683
     35 H         -2.521937   -3.11895   2.726778 H        1 UNL1     0.1085
     36 H         -4.069839   -3.242253   4.096816 H        1 UNL1     0.0691
     37 H         -2.660122   0.8121   4.549712 H        1 UNL1     0.0691
     38 H         -2.725308   -0.328015   9.289808 H        1 UNL1     0.0385
     39 H         -4.304669   -0.092132   10.063449 H        1 UNL1     0.0385
     40 H         -3.48539   1.939821   8.810732 H        1 UNL1     0.0789
     41 H         -5.344393   1.817773   5.990398 H        1 UNL1     0.0623
     42 H         -7.665062   2.605898   5.754742 H        1 UNL1     0.0654
     43 H         -8.255496   2.169226   9.986774 H        1 UNL1     0.0654
     44 H         -5.981099   1.353231   10.24606 H        1 UNL1     0.0623
     45 H         -9.306369   3.832063   7.333989 H        1 UNL1     0.2921
     46 H         -4.34089   -3.853655   7.258834 H        1 UNL1     0.2922
     47 H         0.536725   0.754928   2.153671 H        1 UNL1     0.2126
     48 H         1.502193   -1.652874   -0.159392 H        1 UNL1     0.2101
     49 H         -2.198758   0.440637   -0.879365 H        1 UNL1     0.2100
     50 H         -2.095032   -3.871544   -0.533337 H        1 UNL1     0.2102
@<TRIPOS>BOND
     1     1     2    1
     2     1     6    1
     3     2     3    1
     4     3     4    1
     5     3    29    1
     6     3    33    1
     7     4     5    1
     8     5     6    1
     9     5     7    1
    10     5    35    1
    11     7     8    1
    12     8     9   ar
    13     8    13   ar
    14     9    10   ar
    15     9    36    1
    16    10    11   ar
    17    10    26    1
    18    11    12   ar
    19    11    14    1
    20    12    13   ar
    21    12    17    1
    22    13    37    1
    23    14    15    1
    24    14    25    2
    25    15    16    1
    26    15    38    1
    27    15    39    1
    28    16    17    1
    29    16    18    1
    30    16    40    1
    31    18    19   ar
    32    18    23   ar
    33    19    20   ar
    34    19    41    1
    35    20    21   ar
    36    20    42    1
    37    21    22   ar
    38    21    24    1
    39    22    23   ar
    40    22    43    1
    41    23    44    1
    42    24    45    1
    43    26    46    1
    44    27    47    1
    45    28    48    1
    46    29    49    1
    47    30    50    1
    48     1    31    1
    49     1    27    1
    50     2    32    1
    51     2    28    1
    52     4    34    1
    53     4    30    1
