@<TRIPOS>MOLECULE
*****
 50 53 0 0 0
SMALL
GASTEIGER

@<TRIPOS>ATOM
     1 C         -0.392106   -1.356336   1.666556 C.3        1 UNL1     0.1889
     2 C         -0.493268   -0.965488   0.167575 C.3        1 UNL1     0.1342
     3 C         -1.926313   -0.898171   -0.382258 C.3        1 UNL1     0.1174
     4 C         -2.851495   -1.945496   0.242453 C.3        1 UNL1     0.1456
     5 C         -2.719919   -2.010194   1.775054 C.3        1 UNL1     0.2326
     6 O         -1.366499   -2.27648   2.135906 O.3        1 UNL1     -0.3076
     7 O         -3.269108   -0.861781   2.446515 O.3        1 UNL1     -0.4605
     8 C         -3.801021   -1.09093   3.702734 C.ar        1 UNL1     0.1310
     9 C         -4.653221   -2.147483   4.041485 C.ar        1 UNL1     0.0226
     10 C         -5.126833   -2.304428   5.349523 C.ar        1 UNL1     0.1343
     11 C         -4.740258   -1.421394   6.356822 C.ar        1 UNL1     0.1007
     12 C         -3.922545   -0.338801   6.021975 C.ar        1 UNL1     0.1389
     13 C         -3.448592   -0.1797   4.706116 C.ar        1 UNL1     0.0229
     14 C         -5.143124   -1.58837   7.772439 C.2        1 UNL1     0.1740
     15 C         -4.458778   -0.682364   8.753445 C.3        1 UNL1     0.0520
     16 C         -4.340877   0.701596   8.129977 C.3        1 UNL1     0.1322
     17 O         -3.568734   0.650351   6.910043 O.3        1 UNL1     -0.4828
     18 C         -5.677498   1.436699   8.00432 C.ar        1 UNL1     -0.0067
     19 C         -6.022907   2.041004   6.778056 C.ar        1 UNL1     -0.0516
     20 C         -7.215793   2.761251   6.643035 C.ar        1 UNL1     -0.0198
     21 C         -8.066298   2.8904   7.72645 C.ar        1 UNL1     0.1169
     22 C         -7.769723   2.278512   8.937431 C.ar        1 UNL1     -0.0198
     23 C         -6.585779   1.54269   9.067422 C.ar        1 UNL1     -0.0516
     24 O         -9.200676   3.631019   7.568111 O.3        1 UNL1     -0.5068
     25 O         -5.922672   -2.456671   8.155637 O.2        1 UNL1     -0.2917
     26 O         -5.955914   -3.355268   5.613995 O.3        1 UNL1     -0.5058
     27 O         -0.264015   -0.241164   2.53418 O.3        1 UNL1     -0.3648
     28 O         0.217764   -1.947494   -0.60883 O.3        1 UNL1     -0.3841
     29 O         -2.4459   0.429299   -0.282344 O.3        1 UNL1     -0.3863
     30 O         -2.53572   -3.243778   -0.305671 O.3        1 UNL1     -0.3829
     31 H         0.551537   -1.899997   1.785089 H        1 UNL1     0.0937
     32 H         0.0   0.0   0.0 H        1 UNL1     0.0671
     33 H         -1.882899   -1.114233   -1.458898 H        1 UNL1     0.0649
     34 H         -3.892635   -1.730349   -0.022388 H        1 UNL1     0.0683
     35 H         -3.304464   -2.895979   2.053572 H        1 UNL1     0.1085
     36 H         -4.945395   -2.899296   3.31655 H        1 UNL1     0.0691
     37 H         -2.814133   0.672154   4.470959 H        1 UNL1     0.0691
     38 H         -3.471029   -1.106672   8.962828 H        1 UNL1     0.0385
     39 H         -5.030052   -0.668215   9.68791 H        1 UNL1     0.0385
     40 H         -3.735698   1.313586   8.812433 H        1 UNL1     0.0789
     41 H         -5.36785   1.961896   5.915332 H        1 UNL1     0.0623
     42 H         -7.465241   3.232672   5.695644 H        1 UNL1     0.0654
     43 H         -8.43594   2.360634   9.787914 H        1 UNL1     0.0654
     44 H         -6.390986   1.069128   10.024835 H        1 UNL1     0.0623
     45 H         -8.94458   4.539072   7.338829 H        1 UNL1     0.2921
     46 H         -5.577106   -3.895065   6.325707 H        1 UNL1     0.2922
     47 H         0.495861   0.29877   2.275493 H        1 UNL1     0.2126
     48 H         1.15185   -1.903863   -0.327206 H        1 UNL1     0.2101
     49 H         -1.982269   1.012814   -0.903915 H        1 UNL1     0.2100
     50 H         -2.762655   -3.232047   -1.258601 H        1 UNL1     0.2102
@<TRIPOS>BOND
     1     1     2    1
     2     1     6    1
     3     2     3    1
     4     3     4    1
     5     3    29    1
     6     3    33    1
     7     4     5    1
     8     5     6    1
     9     5     7    1
    10     5    35    1
    11     7     8    1
    12     8     9   ar
    13     8    13   ar
    14     9    10   ar
    15     9    36    1
    16    10    11   ar
    17    10    26    1
    18    11    12   ar
    19    11    14    1
    20    12    13   ar
    21    12    17    1
    22    13    37    1
    23    14    15    1
    24    14    25    2
    25    15    16    1
    26    15    38    1
    27    15    39    1
    28    16    17    1
    29    16    18    1
    30    16    40    1
    31    18    19   ar
    32    18    23   ar
    33    19    20   ar
    34    19    41    1
    35    20    21   ar
    36    20    42    1
    37    21    22   ar
    38    21    24    1
    39    22    23   ar
    40    22    43    1
    41    23    44    1
    42    24    45    1
    43    26    46    1
    44    27    47    1
    45    28    48    1
    46    29    49    1
    47    30    50    1
    48     1    31    1
    49     1    27    1
    50     2    32    1
    51     2    28    1
    52     4    34    1
    53     4    30    1
