@<TRIPOS>MOLECULE
*****
 50 53 0 0 0
SMALL
GASTEIGER

@<TRIPOS>ATOM
     1 C         -0.272413   -1.288378   1.742607 C.3        1 UNL1     0.1889
     2 C         -0.829271   -0.437046   0.569967 C.3        1 UNL1     0.1342
     3 C         -1.792638   0.683015   0.991692 C.3        1 UNL1     0.1174
     4 C         -2.660561   0.298478   2.192508 C.3        1 UNL1     0.1456
     5 C         -1.84585   -0.351942   3.325452 C.3        1 UNL1     0.2326
     6 O         -1.157845   -1.499343   2.832514 O.3        1 UNL1     -0.3076
     7 O         -0.984045   0.571738   4.014965 O.3        1 UNL1     -0.4605
     8 C         0.37451   0.381905   3.836578 C.ar        1 UNL1     0.1310
     9 C         1.068427   0.570739   2.636527 C.ar        1 UNL1     0.0226
     10 C         2.451631   0.368475   2.560783 C.ar        1 UNL1     0.1343
     11 C         3.178888   -0.004855   3.690191 C.ar        1 UNL1     0.1007
     12 C         2.49097   -0.236256   4.884345 C.ar        1 UNL1     0.1389
     13 C         1.099778   -0.035375   4.959602 C.ar        1 UNL1     0.0229
     14 C         4.652948   -0.150764   3.686891 C.2        1 UNL1     0.1740
     15 C         5.289959   -0.337167   5.032633 C.3        1 UNL1     0.0520
     16 C         4.411831   -1.268939   5.856435 C.3        1 UNL1     0.1322
     17 O         3.090744   -0.710057   6.028046 O.3        1 UNL1     -0.4828
     18 C         4.428425   -2.720461   5.371116 C.ar        1 UNL1     -0.0067
     19 C         5.066257   -3.036469   4.153937 C.ar        1 UNL1     -0.0516
     20 C         5.05891   -4.345586   3.657832 C.ar        1 UNL1     -0.0198
     21 C         4.412332   -5.343962   4.364238 C.ar        1 UNL1     0.1169
     22 C         3.804041   -5.070406   5.582428 C.ar        1 UNL1     -0.0198
     23 C         3.827103   -3.765009   6.087862 C.ar        1 UNL1     -0.0516
     24 O         4.393611   -6.599325   3.831214 O.3        1 UNL1     -0.5068
     25 O         5.340153   -0.049178   2.674016 O.2        1 UNL1     -0.2917
     26 O         3.068359   0.568542   1.360281 O.3        1 UNL1     -0.5058
     27 O         1.010763   -0.873316   2.183028 O.3        1 UNL1     -0.3648
     28 O         -1.5486   -1.306849   -0.323741 O.3        1 UNL1     -0.3841
     29 O         -1.087924   1.910502   1.188633 O.3        1 UNL1     -0.3863
     30 O         -3.680145   -0.629459   1.762307 O.3        1 UNL1     -0.3829
     31 H         -0.108589   -2.29668   1.346921 H        1 UNL1     0.0937
     32 H         0.0   0.0   0.0 H        1 UNL1     0.0671
     33 H         -2.476662   0.870723   0.15229 H        1 UNL1     0.0649
     34 H         -3.176115   1.184083   2.580204 H        1 UNL1     0.0683
     35 H         -2.608938   -0.714038   4.025783 H        1 UNL1     0.1085
     36 H         0.569277   0.914649   1.737252 H        1 UNL1     0.0691
     37 H         0.587542   -0.223434   5.90074 H        1 UNL1     0.0691
     38 H         5.367859   0.649465   5.50169 H        1 UNL1     0.0385
     39 H         6.302407   -0.733152   4.898753 H        1 UNL1     0.0385
     40 H         4.83201   -1.296912   6.870923 H        1 UNL1     0.0789
     41 H         5.572827   -2.2689   3.576117 H        1 UNL1     0.0623
     42 H         5.544078   -4.574311   2.712153 H        1 UNL1     0.0654
     43 H         3.307821   -5.847693   6.151199 H        1 UNL1     0.0654
     44 H         3.350992   -3.58929   7.047698 H        1 UNL1     0.0623
     45 H         3.621502   -7.070747   4.183814 H        1 UNL1     0.2921
     46 H         4.027108   0.465496   1.467957 H        1 UNL1     0.2922
     47 H         1.575568   -1.642659   2.341034 H        1 UNL1     0.2126
     48 H         -2.497551   -1.188449   -0.125737 H        1 UNL1     0.2101
     49 H         -0.297466   1.754115   1.729477 H        1 UNL1     0.2100
     50 H         -3.24451   -1.336381   1.242502 H        1 UNL1     0.2102
@<TRIPOS>BOND
     1     1     2    1
     2     1     6    1
     3     2     3    1
     4     3     4    1
     5     3    29    1
     6     3    33    1
     7     4     5    1
     8     5     6    1
     9     5     7    1
    10     5    35    1
    11     7     8    1
    12     8     9   ar
    13     8    13   ar
    14     9    10   ar
    15     9    36    1
    16    10    11   ar
    17    10    26    1
    18    11    12   ar
    19    11    14    1
    20    12    13   ar
    21    12    17    1
    22    13    37    1
    23    14    15    1
    24    14    25    2
    25    15    16    1
    26    15    38    1
    27    15    39    1
    28    16    17    1
    29    16    18    1
    30    16    40    1
    31    18    19   ar
    32    18    23   ar
    33    19    20   ar
    34    19    41    1
    35    20    21   ar
    36    20    42    1
    37    21    22   ar
    38    21    24    1
    39    22    23   ar
    40    22    43    1
    41    23    44    1
    42    24    45    1
    43    26    46    1
    44    27    47    1
    45    28    48    1
    46    29    49    1
    47    30    50    1
    48     1    31    1
    49     1    27    1
    50     2    32    1
    51     2    28    1
    52     4    34    1
    53     4    30    1
