@<TRIPOS>MOLECULE
*****
 50 53 0 0 0
SMALL
GASTEIGER

@<TRIPOS>ATOM
     1 C         -0.152258   -0.364702   2.148165 C.3        1 UNL1     0.1889
     2 C         -0.776857   0.000294   0.774632 C.3        1 UNL1     0.1342
     3 C         -1.515023   1.347368   0.743518 C.3        1 UNL1     0.1174
     4 C         -2.223794   1.666339   2.062236 C.3        1 UNL1     0.1456
     5 C         -1.327887   1.416851   3.289211 C.3        1 UNL1     0.2326
     6 O         -0.874101   0.06521   3.292942 O.3        1 UNL1     -0.3076
     7 O         -0.260197   2.372573   3.42321 O.3        1 UNL1     -0.4605
     8 C         -0.603808   3.591215   3.980319 C.ar        1 UNL1     0.1310
     9 C         -1.900051   3.986844   4.327497 C.ar        1 UNL1     0.0226
     10 C         -2.144644   5.239021   4.903805 C.ar        1 UNL1     0.1343
     11 C         -1.094863   6.117333   5.169077 C.ar        1 UNL1     0.1007
     12 C         0.198824   5.750111   4.789201 C.ar        1 UNL1     0.1389
     13 C         0.444162   4.492075   4.20732 C.ar        1 UNL1     0.0229
     14 C         -1.285863   7.41749   5.852644 C.2        1 UNL1     0.1740
     15 C         -0.028349   8.129719   6.256298 C.3        1 UNL1     0.0520
     16 C         0.993327   7.97453   5.13824 C.3        1 UNL1     0.1322
     17 O         1.289769   6.58007   4.904412 O.3        1 UNL1     -0.4828
     18 C         0.651635   8.770673   3.876445 C.ar        1 UNL1     -0.0067
     19 C         0.311666   10.134483   3.988948 C.ar        1 UNL1     -0.0516
     20 C         -0.051995   10.879553   2.86086 C.ar        1 UNL1     -0.0198
     21 C         -0.086598   10.271893   1.618532 C.ar        1 UNL1     0.1169
     22 C         0.275181   8.939167   1.470901 C.ar        1 UNL1     -0.0198
     23 C         0.656696   8.198668   2.596141 C.ar        1 UNL1     -0.0516
     24 O         -0.482136   11.01941   0.548406 O.3        1 UNL1     -0.5068
     25 O         -2.388282   7.86767   6.153469 O.2        1 UNL1     -0.2917
     26 O         -3.431845   5.564521   5.21805 O.3        1 UNL1     -0.5058
     27 O         1.225789   -0.041973   2.246244 O.3        1 UNL1     -0.3648
     28 O         -1.73046   -1.018986   0.421903 O.3        1 UNL1     -0.3841
     29 O         -0.641126   2.394706   0.317467 O.3        1 UNL1     -0.3863
     30 O         -3.40571   0.844219   2.175739 O.3        1 UNL1     -0.3829
     31 H         -0.179384   -1.457236   2.223738 H        1 UNL1     0.0937
     32 H         0.0   0.0   0.0 H        1 UNL1     0.0671
     33 H         -2.294115   1.285068   -0.029046 H        1 UNL1     0.0649
     34 H         -2.557744   2.70983   2.064455 H        1 UNL1     0.0683
     35 H         -2.01005   1.526631   4.14155 H        1 UNL1     0.1085
     36 H         -2.751331   3.327489   4.198296 H        1 UNL1     0.0691
     37 H         1.460193   4.230585   3.919577 H        1 UNL1     0.0691
     38 H         0.328922   7.670705   7.184301 H        1 UNL1     0.0385
     39 H         -0.26096   9.180175   6.461751 H        1 UNL1     0.0385
     40 H         1.938737   8.398869   5.50246 H        1 UNL1     0.0789
     41 H         0.322251   10.63225   4.954229 H        1 UNL1     0.0623
     42 H         -0.323526   11.927403   2.962312 H        1 UNL1     0.0654
     43 H         0.266096   8.457365   0.500491 H        1 UNL1     0.0654
     44 H         0.943257   7.162753   2.442497 H        1 UNL1     0.0623
     45 H         -0.648121   11.926451   0.85245 H        1 UNL1     0.2921
     46 H         -4.021113   4.837431   4.962092 H        1 UNL1     0.2922
     47 H         1.7562   -0.686272   1.756957 H        1 UNL1     0.2126
     48 H         -2.613591   -0.605072   0.47179 H        1 UNL1     0.2101
     49 H         -0.583636   2.402949   -0.651254 H        1 UNL1     0.2100
     50 H         -3.416314   0.45386   3.074194 H        1 UNL1     0.2102
@<TRIPOS>BOND
     1     1     2    1
     2     1     6    1
     3     2     3    1
     4     3     4    1
     5     3    29    1
     6     3    33    1
     7     4     5    1
     8     5     6    1
     9     5     7    1
    10     5    35    1
    11     7     8    1
    12     8     9   ar
    13     8    13   ar
    14     9    10   ar
    15     9    36    1
    16    10    11   ar
    17    10    26    1
    18    11    12   ar
    19    11    14    1
    20    12    13   ar
    21    12    17    1
    22    13    37    1
    23    14    15    1
    24    14    25    2
    25    15    16    1
    26    15    38    1
    27    15    39    1
    28    16    17    1
    29    16    18    1
    30    16    40    1
    31    18    19   ar
    32    18    23   ar
    33    19    20   ar
    34    19    41    1
    35    20    21   ar
    36    20    42    1
    37    21    22   ar
    38    21    24    1
    39    22    23   ar
    40    22    43    1
    41    23    44    1
    42    24    45    1
    43    26    46    1
    44    27    47    1
    45    28    48    1
    46    29    49    1
    47    30    50    1
    48     1    31    1
    49     1    27    1
    50     2    32    1
    51     2    28    1
    52     4    34    1
    53     4    30    1
