@<TRIPOS>MOLECULE
*****
 50 53 0 0 0
SMALL
GASTEIGER

@<TRIPOS>ATOM
     1 C         -0.389899   -1.405361   1.625959 C.3        1 UNL1     0.1889
     2 C         -0.497482   -0.967652   0.140437 C.3        1 UNL1     0.1342
     3 C         -1.933247   -0.875867   -0.398653 C.3        1 UNL1     0.1174
     4 C         -2.860471   -1.937265   0.198681 C.3        1 UNL1     0.1456
     5 C         -2.720533   -2.050186   1.727742 C.3        1 UNL1     0.2326
     6 O         -1.366532   -2.334563   2.07224 O.3        1 UNL1     -0.3076
     7 O         -3.259724   -0.920335   2.437694 O.3        1 UNL1     -0.4605
     8 C         -3.795944   -1.187501   3.684537 C.ar        1 UNL1     0.1310
     9 C         -4.656134   -2.248801   3.986224 C.ar        1 UNL1     0.0226
     10 C         -5.133671   -2.445936   5.287377 C.ar        1 UNL1     0.1343
     11 C         -4.743225   -1.599658   6.324298 C.ar        1 UNL1     0.1007
     12 C         -3.91735   -0.512223   6.027314 C.ar        1 UNL1     0.1389
     13 C         -3.439441   -0.312675   4.718416 C.ar        1 UNL1     0.0229
     14 C         -5.150321   -1.810893   7.732775 C.2        1 UNL1     0.1740
     15 C         -4.461897   -0.942851   8.744765 C.3        1 UNL1     0.0520
     16 C         -4.333111   0.460257   8.167998 C.3        1 UNL1     0.1322
     17 O         -3.558678   0.444312   6.948543 O.3        1 UNL1     -0.4828
     18 C         -5.664362   1.208414   8.064299 C.ar        1 UNL1     -0.0067
     19 C         -5.903799   2.315564   8.904003 C.ar        1 UNL1     -0.0516
     20 C         -7.128582   2.99275   8.868097 C.ar        1 UNL1     -0.0198
     21 C         -8.122421   2.568982   8.004077 C.ar        1 UNL1     0.1169
     22 C         -7.904444   1.502796   7.141192 C.ar        1 UNL1     -0.0198
     23 C         -6.673104   0.836953   7.163826 C.ar        1 UNL1     -0.0516
     24 O         -9.315672   3.229406   8.023908 O.3        1 UNL1     -0.5068
     25 O         -5.936663   -2.686037   8.085299 O.2        1 UNL1     -0.2917
     26 O         -5.970542   -3.499213   5.515061 O.3        1 UNL1     -0.5058
     27 O         -0.250894   -0.318338   2.526984 O.3        1 UNL1     -0.3648
     28 O         0.203844   -1.92876   -0.670192 O.3        1 UNL1     -0.3841
     29 O         -2.445127   0.45054   -0.254585 O.3        1 UNL1     -0.3863
     30 O         -2.55479   -3.219528   -0.391278 O.3        1 UNL1     -0.3829
     31 H         0.551471   -1.957328   1.722055 H        1 UNL1     0.0937
     32 H         0.0   0.0   0.0 H        1 UNL1     0.0671
     33 H         -1.897116   -1.058627   -1.481711 H        1 UNL1     0.0649
     34 H         -3.90193   -1.708601   -0.053267 H        1 UNL1     0.0683
     35 H         -3.308231   -2.941145   1.982073 H        1 UNL1     0.1085
     36 H         -4.951894   -2.973998   3.236066 H        1 UNL1     0.0691
     37 H         -2.798621   0.542109   4.513019 H        1 UNL1     0.0691
     38 H         -3.477552   -1.380756   8.941818 H        1 UNL1     0.0385
     39 H         -5.035099   -0.955868   9.678065 H        1 UNL1     0.0385
     40 H         -3.725224   1.04495   8.871651 H        1 UNL1     0.0789
     41 H         -5.143124   2.662091   9.597504 H        1 UNL1     0.0623
     42 H         -7.305405   3.83769   9.529023 H        1 UNL1     0.0654
     43 H         -8.670433   1.172082   6.449962 H        1 UNL1     0.0654
     44 H         -6.533516   0.014846   6.468484 H        1 UNL1     0.0623
     45 H         -9.333713   3.852567   7.279555 H        1 UNL1     0.2921
     46 H         -5.764324   -3.896005   6.376131 H        1 UNL1     0.2922
     47 H         0.501691   0.233555   2.272247 H        1 UNL1     0.2126
     48 H         1.156816   -1.786859   -0.510693 H        1 UNL1     0.2101
     49 H         -2.996036   0.506922   0.542355 H        1 UNL1     0.2100
     50 H         -2.808125   -3.184405   -1.336952 H        1 UNL1     0.2102
@<TRIPOS>BOND
     1     1     2    1
     2     1     6    1
     3     2     3    1
     4     3     4    1
     5     3    29    1
     6     3    33    1
     7     4     5    1
     8     5     6    1
     9     5     7    1
    10     5    35    1
    11     7     8    1
    12     8     9   ar
    13     8    13   ar
    14     9    10   ar
    15     9    36    1
    16    10    11   ar
    17    10    26    1
    18    11    12   ar
    19    11    14    1
    20    12    13   ar
    21    12    17    1
    22    13    37    1
    23    14    15    1
    24    14    25    2
    25    15    16    1
    26    15    38    1
    27    15    39    1
    28    16    17    1
    29    16    18    1
    30    16    40    1
    31    18    19   ar
    32    18    23   ar
    33    19    20   ar
    34    19    41    1
    35    20    21   ar
    36    20    42    1
    37    21    22   ar
    38    21    24    1
    39    22    23   ar
    40    22    43    1
    41    23    44    1
    42    24    45    1
    43    26    46    1
    44    27    47    1
    45    28    48    1
    46    29    49    1
    47    30    50    1
    48     1    31    1
    49     1    27    1
    50     2    32    1
    51     2    28    1
    52     4    34    1
    53     4    30    1
