@<TRIPOS>MOLECULE
*****
 50 53 0 0 0
SMALL
GASTEIGER

@<TRIPOS>ATOM
     1 C         -1.800647   0.622193   1.068341 C.3        1 UNL1     0.1889
     2 C         -0.75854   0.789474   -0.070066 C.3        1 UNL1     0.1342
     3 C         -0.057721   2.156328   -0.102121 C.3        1 UNL1     0.1174
     4 C         -0.975482   3.304043   0.326344 C.3        1 UNL1     0.1456
     5 C         -1.765117   2.981324   1.60802 C.3        1 UNL1     0.2326
     6 O         -2.526392   1.790076   1.422934 O.3        1 UNL1     -0.3076
     7 O         -0.948255   2.952518   2.7926 O.3        1 UNL1     -0.4605
     8 C         -1.535469   3.440932   3.945926 C.ar        1 UNL1     0.1310
     9 C         -2.719557   4.18409   4.000264 C.ar        1 UNL1     0.0226
     10 C         -3.244689   4.620498   5.222429 C.ar        1 UNL1     0.1343
     11 C         -2.61049   4.303642   6.422943 C.ar        1 UNL1     0.1007
     12 C         -1.405592   3.597213   6.37863 C.ar        1 UNL1     0.1389
     13 C         -0.876384   3.160792   5.149441 C.ar        1 UNL1     0.0229
     14 C         -3.165576   4.667019   7.747325 C.2        1 UNL1     0.1740
     15 C         -2.47424   4.05634   8.930826 C.3        1 UNL1     0.0520
     16 C         -0.973273   4.079453   8.676813 C.3        1 UNL1     0.1322
     17 O         -0.642337   3.324845   7.490172 O.3        1 UNL1     -0.4828
     18 C         -0.361142   5.481368   8.728319 C.ar        1 UNL1     -0.0067
     19 C         -1.010604   6.545273   8.06914 C.ar        1 UNL1     -0.0516
     20 C         -0.453495   7.829576   8.05655 C.ar        1 UNL1     -0.0198
     21 C         0.75353   8.060708   8.691764 C.ar        1 UNL1     0.1169
     22 C         1.4003   7.040946   9.377775 C.ar        1 UNL1     -0.0198
     23 C         0.834198   5.760798   9.406167 C.ar        1 UNL1     -0.0516
     24 O         1.284225   9.315482   8.626143 O.3        1 UNL1     -0.5068
     25 O         -4.172587   5.354973   7.892703 O.2        1 UNL1     -0.2917
     26 O         -4.402398   5.34233   5.206525 O.3        1 UNL1     -0.5058
     27 O         -1.28717   -0.042651   2.21163 O.3        1 UNL1     -0.3648
     28 O         -1.43106   0.623185   -1.332117 O.3        1 UNL1     -0.3841
     29 O         1.16321   2.117654   0.639475 O.3        1 UNL1     -0.3863
     30 O         -1.911433   3.584469   -0.737163 O.3        1 UNL1     -0.3829
     31 H         -2.573873   -0.054077   0.687736 H        1 UNL1     0.0937
     32 H         0.0   0.0   0.0 H        1 UNL1     0.0671
     33 H         0.238307   2.357113   -1.141242 H        1 UNL1     0.0649
     34 H         -0.386949   4.214668   0.483792 H        1 UNL1     0.0683
     35 H         -2.481715   3.80791   1.692408 H        1 UNL1     0.1085
     36 H         -3.289337   4.415028   3.106878 H        1 UNL1     0.0691
     37 H         0.063733   2.61342   5.141903 H        1 UNL1     0.0691
     38 H         -2.841341   3.029785   9.035462 H        1 UNL1     0.0385
     39 H         -2.749991   4.611902   9.83365 H        1 UNL1     0.0385
     40 H         -0.497634   3.524386   9.496684 H        1 UNL1     0.0789
     41 H         -1.954457   6.38757   7.555406 H        1 UNL1     0.0623
     42 H         -0.958009   8.638979   7.534684 H        1 UNL1     0.0654
     43 H         2.338418   7.214477   9.891324 H        1 UNL1     0.0654
     44 H         1.361413   4.990376   9.960549 H        1 UNL1     0.0623
     45 H         1.362101   9.567051   7.691604 H        1 UNL1     0.2921
     46 H         -4.585272   5.640595   4.301535 H        1 UNL1     0.2922
     47 H         -0.831449   -0.854915   1.950085 H        1 UNL1     0.2126
     48 H         -2.219197   0.073178   -1.158723 H        1 UNL1     0.2101
     49 H         1.290292   2.956883   1.109941 H        1 UNL1     0.2100
     50 H         -1.928099   4.554049   -0.876268 H        1 UNL1     0.2102
@<TRIPOS>BOND
     1     1     2    1
     2     1     6    1
     3     2     3    1
     4     3     4    1
     5     3    29    1
     6     3    33    1
     7     4     5    1
     8     5     6    1
     9     5     7    1
    10     5    35    1
    11     7     8    1
    12     8     9   ar
    13     8    13   ar
    14     9    10   ar
    15     9    36    1
    16    10    11   ar
    17    10    26    1
    18    11    12   ar
    19    11    14    1
    20    12    13   ar
    21    12    17    1
    22    13    37    1
    23    14    15    1
    24    14    25    2
    25    15    16    1
    26    15    38    1
    27    15    39    1
    28    16    17    1
    29    16    18    1
    30    16    40    1
    31    18    19   ar
    32    18    23   ar
    33    19    20   ar
    34    19    41    1
    35    20    21   ar
    36    20    42    1
    37    21    22   ar
    38    21    24    1
    39    22    23   ar
    40    22    43    1
    41    23    44    1
    42    24    45    1
    43    26    46    1
    44    27    47    1
    45    28    48    1
    46    29    49    1
    47    30    50    1
    48     1    31    1
    49     1    27    1
    50     2    32    1
    51     2    28    1
    52     4    34    1
    53     4    30    1
