@<TRIPOS>MOLECULE
*****
 50 53 0 0 0
SMALL
GASTEIGER

@<TRIPOS>ATOM
     1 C         -0.333727   -1.329085   1.700872 C.3        1 UNL1     0.1889
     2 C         -0.463377   -0.975111   0.194939 C.3        1 UNL1     0.1342
     3 C         -1.90402   -0.960977   -0.338741 C.3        1 UNL1     0.1174
     4 C         -2.791475   -2.019867   0.320267 C.3        1 UNL1     0.1456
     5 C         -2.6404   -2.046283   1.852208 C.3        1 UNL1     0.2326
     6 O         -1.275815   -2.265774   2.202348 O.3        1 UNL1     -0.3076
     7 O         -3.214539   -0.899133   2.504689 O.3        1 UNL1     -0.4605
     8 C         -3.725108   -1.114985   3.77207 C.ar        1 UNL1     0.1310
     9 C         -4.542653   -2.187458   4.144524 C.ar        1 UNL1     0.0226
     10 C         -4.996423   -2.328329   5.461396 C.ar        1 UNL1     0.1343
     11 C         -4.623748   -1.412207   6.444084 C.ar        1 UNL1     0.1007
     12 C         -3.841375   -0.314605   6.075376 C.ar        1 UNL1     0.1389
     13 C         -3.387418   -0.171745   4.750632 C.ar        1 UNL1     0.0229
     14 C         -5.005274   -1.558668   7.867861 C.2        1 UNL1     0.1740
     15 C         -4.335935   -0.611712   8.820125 C.3        1 UNL1     0.0520
     16 C         -4.265025   0.760657   8.164737 C.3        1 UNL1     0.1322
     17 O         -3.505874   0.70395   6.936917 O.3        1 UNL1     -0.4828
     18 C         -5.623562   1.45443   8.039117 C.ar        1 UNL1     -0.0067
     19 C         -6.000714   2.020093   6.803806 C.ar        1 UNL1     -0.0516
     20 C         -7.215271   2.70288   6.667359 C.ar        1 UNL1     -0.0198
     21 C         -8.056174   2.832934   7.758136 C.ar        1 UNL1     0.1169
     22 C         -7.727797   2.257952   8.978957 C.ar        1 UNL1     -0.0198
     23 C         -6.521791   1.559231   9.110843 C.ar        1 UNL1     -0.0516
     24 O         -9.213112   3.537198   7.59718 O.3        1 UNL1     -0.5068
     25 O         -5.755094   -2.439947   8.279689 O.2        1 UNL1     -0.2917
     26 O         -5.791883   -3.396107   5.759186 O.3        1 UNL1     -0.5058
     27 O         -0.227691   -0.191474   2.541934 O.3        1 UNL1     -0.3648
     28 O         0.266538   -1.953722   -0.568115 O.3        1 UNL1     -0.3841
     29 O         -2.460315   0.35309   -0.261955 O.3        1 UNL1     -0.3863
     30 O         -2.44491   -3.32065   -0.202749 O.3        1 UNL1     -0.3829
     31 H         0.626441   -1.842879   1.819916 H        1 UNL1     0.0937
     32 H         0.0   0.0   0.0 H        1 UNL1     0.0671
     33 H         -1.866861   -1.199895   -1.410776 H        1 UNL1     0.0649
     34 H         -3.841352   -1.840437   0.063432 H        1 UNL1     0.0683
     35 H         -3.196017   -2.941842   2.1574 H        1 UNL1     0.1085
     36 H         -4.821478   -2.963404   3.44005 H        1 UNL1     0.0691
     37 H         -2.780435   0.692302   4.488932 H        1 UNL1     0.0691
     38 H         -3.334058   -1.002932   9.026806 H        1 UNL1     0.0385
     39 H         -4.896547   -0.592788   9.760941 H        1 UNL1     0.0385
     40 H         -3.669822   1.40482   8.82603 H        1 UNL1     0.0789
     41 H         -5.353972   1.939619   5.934956 H        1 UNL1     0.0623
     42 H         -7.489381   3.144938   5.712655 H        1 UNL1     0.0654
     43 H         -8.385925   2.340838   9.835641 H        1 UNL1     0.0654
     44 H         -6.302129   1.113715   10.076301 H        1 UNL1     0.0623
     45 H         -8.98604   4.445095   7.338572 H        1 UNL1     0.2921
     46 H         -5.388846   -3.909531   6.477078 H        1 UNL1     0.2922
     47 H         0.515872   0.361775   2.264644 H        1 UNL1     0.2126
     48 H         1.199422   -1.888897   -0.286586 H        1 UNL1     0.2101
     49 H         -2.020719   0.935461   -0.901794 H        1 UNL1     0.2100
     50 H         -2.67786   -3.334907   -1.154192 H        1 UNL1     0.2102
@<TRIPOS>BOND
     1     1     2    1
     2     1     6    1
     3     2     3    1
     4     3     4    1
     5     3    29    1
     6     3    33    1
     7     4     5    1
     8     5     6    1
     9     5     7    1
    10     5    35    1
    11     7     8    1
    12     8     9   ar
    13     8    13   ar
    14     9    10   ar
    15     9    36    1
    16    10    11   ar
    17    10    26    1
    18    11    12   ar
    19    11    14    1
    20    12    13   ar
    21    12    17    1
    22    13    37    1
    23    14    15    1
    24    14    25    2
    25    15    16    1
    26    15    38    1
    27    15    39    1
    28    16    17    1
    29    16    18    1
    30    16    40    1
    31    18    19   ar
    32    18    23   ar
    33    19    20   ar
    34    19    41    1
    35    20    21   ar
    36    20    42    1
    37    21    22   ar
    38    21    24    1
    39    22    23   ar
    40    22    43    1
    41    23    44    1
    42    24    45    1
    43    26    46    1
    44    27    47    1
    45    28    48    1
    46    29    49    1
    47    30    50    1
    48     1    31    1
    49     1    27    1
    50     2    32    1
    51     2    28    1
    52     4    34    1
    53     4    30    1
