@<TRIPOS>MOLECULE
*****
 50 53 0 0 0
SMALL
GASTEIGER

@<TRIPOS>ATOM
     1 C         0.885005   -1.967842   -0.339363 C.3        1 UNL1     0.1889
     2 C         -0.260352   -0.934359   -0.512594 C.3        1 UNL1     0.1342
     3 C         -1.63455   -1.411182   -0.017941 C.3        1 UNL1     0.1174
     4 C         -1.858848   -2.908816   -0.241325 C.3        1 UNL1     0.1456
     5 C         -0.652337   -3.758309   0.198058 C.3        1 UNL1     0.2326
     6 O         0.519852   -3.33153   -0.492377 O.3        1 UNL1     -0.3076
     7 O         -0.479602   -3.813387   1.625801 O.3        1 UNL1     -0.4605
     8 C         0.054683   -4.986798   2.126974 C.ar        1 UNL1     0.1310
     9 C         -0.338911   -6.278135   1.759781 C.ar        1 UNL1     0.0226
     10 C         0.276693   -7.407199   2.313089 C.ar        1 UNL1     0.1343
     11 C         1.318096   -7.27203   3.230177 C.ar        1 UNL1     0.1007
     12 C         1.692187   -5.988046   3.635426 C.ar        1 UNL1     0.1389
     13 C         1.071253   -4.852975   3.080912 C.ar        1 UNL1     0.0229
     14 C         2.059782   -8.429055   3.782759 C.2        1 UNL1     0.1740
     15 C         3.287701   -8.093687   4.577298 C.3        1 UNL1     0.0520
     16 C         2.98754   -6.872576   5.435639 C.3        1 UNL1     0.1322
     17 O         2.630068   -5.741493   4.611058 O.3        1 UNL1     -0.4828
     18 C         2.016647   -7.151313   6.585593 C.ar        1 UNL1     -0.0067
     19 C         2.488727   -7.118641   7.913858 C.ar        1 UNL1     -0.0516
     20 C         1.638548   -7.415249   8.985857 C.ar        1 UNL1     -0.0198
     21 C         0.319045   -7.752407   8.742827 C.ar        1 UNL1     0.1169
     22 C         -0.183697   -7.760516   7.448213 C.ar        1 UNL1     -0.0198
     23 C         0.661569   -7.445957   6.377403 C.ar        1 UNL1     -0.0516
     24 O         -0.469328   -8.071992   9.809005 O.3        1 UNL1     -0.5068
     25 O         1.757976   -9.597399   3.553911 O.2        1 UNL1     -0.2917
     26 O         -0.154616   -8.638419   1.913522 O.3        1 UNL1     -0.5058
     27 O         1.660587   -1.761421   0.83053 O.3        1 UNL1     -0.3648
     28 O         -0.391498   -0.629386   -1.913486 O.3        1 UNL1     -0.3841
     29 O         -1.850654   -1.015412   1.338082 O.3        1 UNL1     -0.3863
     30 O         -2.10765   -3.146545   -1.64392 O.3        1 UNL1     -0.3829
     31 H         1.587615   -1.797011   -1.162306 H        1 UNL1     0.0937
     32 H         0.0   0.0   0.0 H        1 UNL1     0.0671
     33 H         -2.402359   -0.884315   -0.601551 H        1 UNL1     0.0649
     34 H         -2.750753   -3.238651   0.302839 H        1 UNL1     0.0683
     35 H         -0.88987   -4.764768   -0.168682 H        1 UNL1     0.1085
     36 H         -1.103954   -6.449667   1.01051 H        1 UNL1     0.0691
     37 H         1.379999   -3.864426   3.413988 H        1 UNL1     0.0691
     38 H         4.095814   -7.888306   3.867158 H        1 UNL1     0.0385
     39 H         3.574088   -8.962742   5.179382 H        1 UNL1     0.0385
     40 H         3.929448   -6.575233   5.916178 H        1 UNL1     0.0789
     41 H         3.522592   -6.86583   8.130329 H        1 UNL1     0.0623
     42 H         2.017498   -7.398243   10.004738 H        1 UNL1     0.0654
     43 H         -1.219195   -8.008464   7.247777 H        1 UNL1     0.0654
     44 H         0.232562   -7.451818   5.380024 H        1 UNL1     0.0623
     45 H         -1.009598   -7.297287   10.034076 H        1 UNL1     0.2921
     46 H         0.604643   -9.237374   1.834847 H        1 UNL1     0.2922
     47 H         1.96655   -0.844616   0.871954 H        1 UNL1     0.2126
     48 H         0.380787   -0.082199   -2.154098 H        1 UNL1     0.2101
     49 H         -1.646705   -1.753809   1.933874 H        1 UNL1     0.2100
     50 H         -2.968901   -2.738494   -1.870755 H        1 UNL1     0.2102
@<TRIPOS>BOND
     1     1     2    1
     2     1     6    1
     3     2     3    1
     4     3     4    1
     5     3    29    1
     6     3    33    1
     7     4     5    1
     8     5     6    1
     9     5     7    1
    10     5    35    1
    11     7     8    1
    12     8     9   ar
    13     8    13   ar
    14     9    10   ar
    15     9    36    1
    16    10    11   ar
    17    10    26    1
    18    11    12   ar
    19    11    14    1
    20    12    13   ar
    21    12    17    1
    22    13    37    1
    23    14    15    1
    24    14    25    2
    25    15    16    1
    26    15    38    1
    27    15    39    1
    28    16    17    1
    29    16    18    1
    30    16    40    1
    31    18    19   ar
    32    18    23   ar
    33    19    20   ar
    34    19    41    1
    35    20    21   ar
    36    20    42    1
    37    21    22   ar
    38    21    24    1
    39    22    23   ar
    40    22    43    1
    41    23    44    1
    42    24    45    1
    43    26    46    1
    44    27    47    1
    45    28    48    1
    46    29    49    1
    47    30    50    1
    48     1    31    1
    49     1    27    1
    50     2    32    1
    51     2    28    1
    52     4    34    1
    53     4    30    1
