@<TRIPOS>MOLECULE
*****
 50 53 0 0 0
SMALL
GASTEIGER

@<TRIPOS>ATOM
     1 C         -1.911301   -0.072645   -1.05473 C.3        1 UNL1     0.1889
     2 C         -0.548085   0.59902   -0.737794 C.3        1 UNL1     0.1342
     3 C         -0.648454   2.046637   -0.23302 C.3        1 UNL1     0.1174
     4 C         -1.798811   2.822262   -0.879705 C.3        1 UNL1     0.1456
     5 C         -3.113892   2.021881   -0.897402 C.3        1 UNL1     0.2326
     6 O         -2.919286   0.782104   -1.574121 O.3        1 UNL1     -0.3076
     7 O         -3.70936   1.868877   0.403878 O.3        1 UNL1     -0.4605
     8 C         -4.860821   1.104163   0.45752 C.ar        1 UNL1     0.1310
     9 C         -5.448501   0.447014   -0.628798 C.ar        1 UNL1     0.0226
     10 C         -6.608849   -0.319826   -0.46926 C.ar        1 UNL1     0.1343
     11 C         -7.196798   -0.467684   0.786246 C.ar        1 UNL1     0.1007
     12 C         -6.642543   0.217086   1.870992 C.ar        1 UNL1     0.1389
     13 C         -5.477332   0.99022   1.709818 C.ar        1 UNL1     0.0229
     14 C         -8.374401   -1.333359   1.027104 C.2        1 UNL1     0.1740
     15 C         -8.736463   -1.551221   2.466895 C.3        1 UNL1     0.0520
     16 C         -8.566586   -0.233904   3.211054 C.3        1 UNL1     0.1322
     17 O         -7.200743   0.229425   3.128183 O.3        1 UNL1     -0.4828
     18 C         -9.616686   0.818784   2.847922 C.ar        1 UNL1     -0.0067
     19 C         -9.327822   1.76841   1.846433 C.ar        1 UNL1     -0.0516
     20 C         -10.247039   2.77363   1.523115 C.ar        1 UNL1     -0.0198
     21 C         -11.452815   2.844258   2.197611 C.ar        1 UNL1     0.1169
     22 C         -11.779925   1.903385   3.16539 C.ar        1 UNL1     -0.0198
     23 C         -10.868583   0.887005   3.476009 C.ar        1 UNL1     -0.0516
     24 O         -12.307081   3.859654   1.882012 O.3        1 UNL1     -0.5068
     25 O         -8.982922   -1.911875   0.130719 O.2        1 UNL1     -0.2917
     26 O         -7.132604   -0.934364   -1.569082 O.3        1 UNL1     -0.5058
     27 O         -2.403205   -0.880072   0.00304 O.3        1 UNL1     -0.3648
     28 O         0.241418   0.618851   -1.941537 O.3        1 UNL1     -0.3841
     29 O         -0.689561   2.084008   1.194932 O.3        1 UNL1     -0.3863
     30 O         -1.440367   3.156067   -2.238301 O.3        1 UNL1     -0.3829
     31 H         -1.729293   -0.779683   -1.871461 H        1 UNL1     0.0937
     32 H         0.0   0.0   0.0 H        1 UNL1     0.0671
     33 H         0.280084   2.564137   -0.51182 H        1 UNL1     0.0649
     34 H         -1.957747   3.76734   -0.348698 H        1 UNL1     0.0683
     35 H         -3.782574   2.625595   -1.52372 H        1 UNL1     0.1085
     36 H         -5.008244   0.476971   -1.619453 H        1 UNL1     0.0691
     37 H         -5.066204   1.514371   2.569896 H        1 UNL1     0.0691
     38 H         -8.064524   -2.319128   2.864819 H        1 UNL1     0.0385
     39 H         -9.762324   -1.93062   2.525586 H        1 UNL1     0.0385
     40 H         -8.721396   -0.442701   4.278274 H        1 UNL1     0.0789
     41 H         -8.384511   1.739955   1.308841 H        1 UNL1     0.0623
     42 H         -10.007682   3.507221   0.757241 H        1 UNL1     0.0654
     43 H         -12.727651   1.940411   3.689178 H        1 UNL1     0.0654
     44 H         -11.161453   0.162593   4.229866 H        1 UNL1     0.0623
     45 H         -11.794792   4.681688   1.814661 H        1 UNL1     0.2921
     46 H         -6.730163   -0.562544   -2.369833 H        1 UNL1     0.2922
     47 H         -1.671934   -1.330109   0.44865 H        1 UNL1     0.2126
     48 H         -0.110904   -0.085738   -2.518734 H        1 UNL1     0.2101
     49 H         -1.295105   2.782832   1.489473 H        1 UNL1     0.2100
     50 H         -2.065373   3.840494   -2.555538 H        1 UNL1     0.2102
@<TRIPOS>BOND
     1     1     2    1
     2     1     6    1
     3     2     3    1
     4     3     4    1
     5     3    29    1
     6     3    33    1
     7     4     5    1
     8     5     6    1
     9     5     7    1
    10     5    35    1
    11     7     8    1
    12     8     9   ar
    13     8    13   ar
    14     9    10   ar
    15     9    36    1
    16    10    11   ar
    17    10    26    1
    18    11    12   ar
    19    11    14    1
    20    12    13   ar
    21    12    17    1
    22    13    37    1
    23    14    15    1
    24    14    25    2
    25    15    16    1
    26    15    38    1
    27    15    39    1
    28    16    17    1
    29    16    18    1
    30    16    40    1
    31    18    19   ar
    32    18    23   ar
    33    19    20   ar
    34    19    41    1
    35    20    21   ar
    36    20    42    1
    37    21    22   ar
    38    21    24    1
    39    22    23   ar
    40    22    43    1
    41    23    44    1
    42    24    45    1
    43    26    46    1
    44    27    47    1
    45    28    48    1
    46    29    49    1
    47    30    50    1
    48     1    31    1
    49     1    27    1
    50     2    32    1
    51     2    28    1
    52     4    34    1
    53     4    30    1
