@<TRIPOS>MOLECULE
*****
 50 53 0 0 0
SMALL
GASTEIGER

@<TRIPOS>ATOM
     1 C         -1.320937   -1.601777   0.678411 C.3        1 UNL1     0.1889
     2 C         -0.729918   -0.694541   -0.434045 C.3        1 UNL1     0.1342
     3 C         -1.77219   0.106378   -1.229447 C.3        1 UNL1     0.1174
     4 C         -3.085132   -0.656311   -1.423369 C.3        1 UNL1     0.1456
     5 C         -3.586205   -1.309148   -0.12218 C.3        1 UNL1     0.2326
     6 O         -2.586828   -2.181767   0.399979 O.3        1 UNL1     -0.3076
     7 O         -4.070675   -0.360376   0.84552 O.3        1 UNL1     -0.4605
     8 C         -4.034297   -0.769497   2.166438 C.ar        1 UNL1     0.1310
     9 C         -4.232886   0.058071   3.27684 C.ar        1 UNL1     0.0226
     10 C         -4.19325   -0.455545   4.578581 C.ar        1 UNL1     0.1343
     11 C         -3.977474   -1.814935   4.800709 C.ar        1 UNL1     0.1007
     12 C         -3.737065   -2.643992   3.701777 C.ar        1 UNL1     0.1389
     13 C         -3.774347   -2.126834   2.393118 C.ar        1 UNL1     0.0229
     14 C         -4.008864   -2.425377   6.149978 C.2        1 UNL1     0.1740
     15 C         -3.980442   -3.925218   6.184867 C.3        1 UNL1     0.0520
     16 C         -3.001136   -4.413293   5.126235 C.3        1 UNL1     0.1322
     17 O         -3.407333   -3.975016   3.810945 O.3        1 UNL1     -0.4828
     18 C         -1.535688   -4.129635   5.464944 C.ar        1 UNL1     -0.0067
     19 C         -1.174617   -2.864855   5.973052 C.ar        1 UNL1     -0.0516
     20 C         0.162932   -2.556543   6.248498 C.ar        1 UNL1     -0.0198
     21 C         1.147381   -3.499712   6.013724 C.ar        1 UNL1     0.1169
     22 C         0.819328   -4.76538   5.545425 C.ar        1 UNL1     -0.0198
     23 C         -0.520194   -5.080225   5.287336 C.ar        1 UNL1     -0.0516
     24 O         2.443068   -3.150604   6.2581 O.3        1 UNL1     -0.5068
     25 O         -4.131335   -1.774079   7.184046 O.2        1 UNL1     -0.2917
     26 O         -4.393719   0.404928   5.618284 O.3        1 UNL1     -0.5058
     27 O         -1.288086   -1.009995   1.967404 O.3        1 UNL1     -0.3648
     28 O         -0.021401   -1.525766   -1.372008 O.3        1 UNL1     -0.3841
     29 O         -1.963679   1.40064   -0.654688 O.3        1 UNL1     -0.3863
     30 O         -2.891726   -1.687774   -2.415522 O.3        1 UNL1     -0.3829
     31 H         -0.655355   -2.46783   0.762266 H        1 UNL1     0.0937
     32 H         0.0   0.0   0.0 H        1 UNL1     0.0671
     33 H         -1.360434   0.290205   -2.231638 H        1 UNL1     0.0649
     34 H         -3.856529   0.019194   -1.809428 H        1 UNL1     0.0683
     35 H         -4.422333   -1.940527   -0.447955 H        1 UNL1     0.1085
     36 H         -4.46048   1.112857   3.16845 H        1 UNL1     0.0691
     37 H         -3.582816   -2.792967   1.554622 H        1 UNL1     0.0691
     38 H         -4.995491   -4.280601   5.977734 H        1 UNL1     0.0385
     39 H         -3.701042   -4.255611   7.191125 H        1 UNL1     0.0385
     40 H         -3.084074   -5.507929   5.08865 H        1 UNL1     0.0789
     41 H         -1.927625   -2.104142   6.157294 H        1 UNL1     0.0623
     42 H         0.430011   -1.573668   6.628811 H        1 UNL1     0.0654
     43 H         1.580666   -5.516581   5.372302 H        1 UNL1     0.0654
     44 H         -0.741505   -6.082111   4.932244 H        1 UNL1     0.0623
     45 H         2.621353   -2.304673   5.816136 H        1 UNL1     0.2921
     46 H         -5.295662   0.29612   5.958977 H        1 UNL1     0.2922
     47 H         -1.532683   -1.660194   2.640659 H        1 UNL1     0.2126
     48 H         0.924065   -1.294647   -1.291941 H        1 UNL1     0.2101
     49 H         -2.748206   1.820805   -1.041694 H        1 UNL1     0.2100
     50 H         -3.553563   -1.551713   -3.124868 H        1 UNL1     0.2102
@<TRIPOS>BOND
     1     1     2    1
     2     1     6    1
     3     2     3    1
     4     3     4    1
     5     3    29    1
     6     3    33    1
     7     4     5    1
     8     5     6    1
     9     5     7    1
    10     5    35    1
    11     7     8    1
    12     8     9   ar
    13     8    13   ar
    14     9    10   ar
    15     9    36    1
    16    10    11   ar
    17    10    26    1
    18    11    12   ar
    19    11    14    1
    20    12    13   ar
    21    12    17    1
    22    13    37    1
    23    14    15    1
    24    14    25    2
    25    15    16    1
    26    15    38    1
    27    15    39    1
    28    16    17    1
    29    16    18    1
    30    16    40    1
    31    18    19   ar
    32    18    23   ar
    33    19    20   ar
    34    19    41    1
    35    20    21   ar
    36    20    42    1
    37    21    22   ar
    38    21    24    1
    39    22    23   ar
    40    22    43    1
    41    23    44    1
    42    24    45    1
    43    26    46    1
    44    27    47    1
    45    28    48    1
    46    29    49    1
    47    30    50    1
    48     1    31    1
    49     1    27    1
    50     2    32    1
    51     2    28    1
    52     4    34    1
    53     4    30    1
