@<TRIPOS>MOLECULE
*****
 50 53 0 0 0
SMALL
GASTEIGER

@<TRIPOS>ATOM
     1 C         -0.363037   -1.342908   1.683926 C.3        1 UNL1     0.1889
     2 C         -0.478612   -0.970367   0.181329 C.3        1 UNL1     0.1342
     3 C         -1.915709   -0.929324   -0.360458 C.3        1 UNL1     0.1174
     4 C         -2.822312   -1.982439   0.28152 C.3        1 UNL1     0.1456
     5 C         -2.680722   -2.028079   1.813915 C.3        1 UNL1     0.2326
     6 O         -1.321561   -2.271296   2.169438 O.3        1 UNL1     -0.3076
     7 O         -3.242029   -0.880014   2.475882 O.3        1 UNL1     -0.4605
     8 C         -3.763178   -1.102482   3.737801 C.ar        1 UNL1     0.1310
     9 C         -4.598379   -2.16701   4.093499 C.ar        1 UNL1     0.0226
     10 C         -5.061942   -2.315888   5.406072 C.ar        1 UNL1     0.1343
     11 C         -4.681858   -1.416269   6.401091 C.ar        1 UNL1     0.1007
     12 C         -3.881484   -0.326146   6.049218 C.ar        1 UNL1     0.1389
     13 C         -3.417657   -0.175196   4.728798 C.ar        1 UNL1     0.0229
     14 C         -5.073902   -1.572976   7.820915 C.2        1 UNL1     0.1740
     15 C         -4.396563   -0.646511   8.78757 C.3        1 UNL1     0.0520
     16 C         -4.301882   0.73188   8.148014 C.3        1 UNL1     0.1322
     17 O         -3.536366   0.677776   6.924034 O.3        1 UNL1     -0.4828
     18 C         -5.64945   1.446715   8.022341 C.ar        1 UNL1     -0.0067
     19 C         -6.010628   2.032315   6.791554 C.ar        1 UNL1     -0.0516
     20 C         -7.214324   2.734206   6.655804 C.ar        1 UNL1     -0.0198
     21 C         -8.060103   2.863572   7.742887 C.ar        1 UNL1     0.1169
     22 C         -7.747738   2.269533   8.958776 C.ar        1 UNL1     -0.0198
     23 C         -6.552792   1.551888   9.089724 C.ar        1 UNL1     -0.0516
     24 O         -9.205724   3.58639   7.583239 O.3        1 UNL1     -0.5068
     25 O         -5.838847   -2.447766   8.218516 O.2        1 UNL1     -0.2917
     26 O         -5.874549   -3.375213   5.687292 O.3        1 UNL1     -0.5058
     27 O         -0.245509   -0.216381   2.538274 O.3        1 UNL1     -0.3648
     28 O         0.241552   -1.95096   -0.588415 O.3        1 UNL1     -0.3841
     29 O         -2.453342   0.391769   -0.272167 O.3        1 UNL1     -0.3863
     30 O         -2.491546   -3.282237   -0.254025 O.3        1 UNL1     -0.3829
     31 H         0.588859   -1.871921   1.802743 H        1 UNL1     0.0937
     32 H         0.0   0.0   0.0 H        1 UNL1     0.0671
     33 H         -1.875663   -1.156827   -1.434869 H        1 UNL1     0.0649
     34 H         -3.867936   -1.784896   0.020662 H        1 UNL1     0.0683
     35 H         -3.251062   -2.91879   2.105848 H        1 UNL1     0.1085
     36 H         -4.884241   -2.930936   3.378782 H        1 UNL1     0.0691
     37 H         -2.796672   0.682777   4.480296 H        1 UNL1     0.0691
     38 H         -3.401706   -1.054552   8.99563 H        1 UNL1     0.0385
     39 H         -4.96241   -0.629884   9.72529 H        1 UNL1     0.0385
     40 H         -3.701334   1.359917   8.819902 H        1 UNL1     0.0789
     41 H         -5.359666   1.952721   5.92578 H        1 UNL1     0.0623
     42 H         -7.47602   3.19142   5.704761 H        1 UNL1     0.0654
     43 H         -8.409974   2.351848   9.812344 H        1 UNL1     0.0654
     44 H         -6.345655   1.09188   10.051145 H        1 UNL1     0.0623
     45 H         -8.963814   4.495314   7.342295 H        1 UNL1     0.2921
     46 H         -5.483946   -3.901624   6.402647 H        1 UNL1     0.2922
     47 H         0.505966   0.330488   2.269798 H        1 UNL1     0.2126
     48 H         1.176589   -1.89108   -0.313005 H        1 UNL1     0.2101
     49 H         -2.001683   0.974713   -0.903019 H        1 UNL1     0.2100
     50 H         -2.719033   -3.282524   -1.206896 H        1 UNL1     0.2102
@<TRIPOS>BOND
     1     1     2    1
     2     1     6    1
     3     2     3    1
     4     3     4    1
     5     3    29    1
     6     3    33    1
     7     4     5    1
     8     5     6    1
     9     5     7    1
    10     5    35    1
    11     7     8    1
    12     8     9   ar
    13     8    13   ar
    14     9    10   ar
    15     9    36    1
    16    10    11   ar
    17    10    26    1
    18    11    12   ar
    19    11    14    1
    20    12    13   ar
    21    12    17    1
    22    13    37    1
    23    14    15    1
    24    14    25    2
    25    15    16    1
    26    15    38    1
    27    15    39    1
    28    16    17    1
    29    16    18    1
    30    16    40    1
    31    18    19   ar
    32    18    23   ar
    33    19    20   ar
    34    19    41    1
    35    20    21   ar
    36    20    42    1
    37    21    22   ar
    38    21    24    1
    39    22    23   ar
    40    22    43    1
    41    23    44    1
    42    24    45    1
    43    26    46    1
    44    27    47    1
    45    28    48    1
    46    29    49    1
    47    30    50    1
    48     1    31    1
    49     1    27    1
    50     2    32    1
    51     2    28    1
    52     4    34    1
    53     4    30    1
