@<TRIPOS>MOLECULE
*****
 50 53 0 0 0
SMALL
GASTEIGER

@<TRIPOS>ATOM
     1 C         -0.175761   -2.138644   -0.407571 C.3        1 UNL1     0.1889
     2 C         -0.369773   -0.899648   0.507409 C.3        1 UNL1     0.1342
     3 C         0.300536   -1.008954   1.885525 C.3        1 UNL1     0.1174
     4 C         0.281874   -2.434354   2.443201 C.3        1 UNL1     0.1456
     5 C         0.71113   -3.482   1.399869 C.3        1 UNL1     0.2326
     6 O         -0.128493   -3.395938   0.250741 O.3        1 UNL1     -0.3076
     7 O         2.113664   -3.432085   1.080921 O.3        1 UNL1     -0.4605
     8 C         2.982065   -3.480445   2.156592 C.ar        1 UNL1     0.1310
     9 C         2.608698   -3.412403   3.503168 C.ar        1 UNL1     0.0226
     10 C         3.564022   -3.487404   4.523773 C.ar        1 UNL1     0.1343
     11 C         4.914829   -3.656364   4.222754 C.ar        1 UNL1     0.1007
     12 C         5.304339   -3.684423   2.881009 C.ar        1 UNL1     0.1389
     13 C         4.343858   -3.606332   1.854944 C.ar        1 UNL1     0.0229
     14 C         5.956487   -3.825546   5.262216 C.2        1 UNL1     0.1740
     15 C         7.315488   -4.218142   4.761683 C.3        1 UNL1     0.0520
     16 C         7.601635   -3.440581   3.484391 C.3        1 UNL1     0.1322
     17 O         6.616253   -3.73877   2.470894 O.3        1 UNL1     -0.4828
     18 C         7.843883   -1.946757   3.713587 C.ar        1 UNL1     -0.0067
     19 C         8.837892   -1.538435   4.626513 C.ar        1 UNL1     -0.0516
     20 C         9.052915   -0.181337   4.894866 C.ar        1 UNL1     -0.0198
     21 C         8.277345   0.77469   4.263731 C.ar        1 UNL1     0.1169
     22 C         7.313431   0.405216   3.334648 C.ar        1 UNL1     -0.0198
     23 C         7.110718   -0.950974   3.052315 C.ar        1 UNL1     -0.0516
     24 O         8.48986   2.084702   4.578544 O.3        1 UNL1     -0.5068
     25 O         5.731067   -3.735727   6.466211 O.2        1 UNL1     -0.2917
     26 O         3.134367   -3.413622   5.816652 O.3        1 UNL1     -0.5058
     27 O         0.885976   -1.99407   -1.33741 O.3        1 UNL1     -0.3648
     28 O         -1.77987   -0.713676   0.730449 O.3        1 UNL1     -0.3841
     29 O         1.61229   -0.442687   1.857685 O.3        1 UNL1     -0.3863
     30 O         -1.053384   -2.748996   2.894617 O.3        1 UNL1     -0.3829
     31 H         -1.073101   -2.21007   -1.031876 H        1 UNL1     0.0937
     32 H         0.0   0.0   0.0 H        1 UNL1     0.0671
     33 H         -0.271469   -0.385721   2.587031 H        1 UNL1     0.0649
     34 H         0.939957   -2.502922   3.316485 H        1 UNL1     0.0683
     35 H         0.49225   -4.442181   1.883627 H        1 UNL1     0.1085
     36 H         1.569355   -3.337512   3.803631 H        1 UNL1     0.0691
     37 H         4.673047   -3.629384   0.818317 H        1 UNL1     0.0691
     38 H         7.299814   -5.296763   4.572323 H        1 UNL1     0.0385
     39 H         8.057078   -4.018727   5.542744 H        1 UNL1     0.0385
     40 H         8.54381   -3.828102   3.073715 H        1 UNL1     0.0789
     41 H         9.453731   -2.269833   5.141731 H        1 UNL1     0.0623
     42 H         9.814408   0.120357   5.609793 H        1 UNL1     0.0654
     43 H         6.710716   1.146369   2.823437 H        1 UNL1     0.0654
     44 H         6.356412   -1.203116   2.313199 H        1 UNL1     0.0623
     45 H         9.270197   2.139215   5.153713 H        1 UNL1     0.2921
     46 H         2.248874   -3.017754   5.841203 H        1 UNL1     0.2922
     47 H         0.618104   -1.414235   -2.063975 H        1 UNL1     0.2126
     48 H         -1.944192   -0.921695   1.670374 H        1 UNL1     0.2101
     49 H         2.12161   -0.752048   2.623638 H        1 UNL1     0.2100
     50 H         -0.979514   -3.213364   3.754046 H        1 UNL1     0.2102
@<TRIPOS>BOND
     1     1     2    1
     2     1     6    1
     3     2     3    1
     4     3     4    1
     5     3    29    1
     6     3    33    1
     7     4     5    1
     8     5     6    1
     9     5     7    1
    10     5    35    1
    11     7     8    1
    12     8     9   ar
    13     8    13   ar
    14     9    10   ar
    15     9    36    1
    16    10    11   ar
    17    10    26    1
    18    11    12   ar
    19    11    14    1
    20    12    13   ar
    21    12    17    1
    22    13    37    1
    23    14    15    1
    24    14    25    2
    25    15    16    1
    26    15    38    1
    27    15    39    1
    28    16    17    1
    29    16    18    1
    30    16    40    1
    31    18    19   ar
    32    18    23   ar
    33    19    20   ar
    34    19    41    1
    35    20    21   ar
    36    20    42    1
    37    21    22   ar
    38    21    24    1
    39    22    23   ar
    40    22    43    1
    41    23    44    1
    42    24    45    1
    43    26    46    1
    44    27    47    1
    45    28    48    1
    46    29    49    1
    47    30    50    1
    48     1    31    1
    49     1    27    1
    50     2    32    1
    51     2    28    1
    52     4    34    1
    53     4    30    1
