@<TRIPOS>MOLECULE
*****
 50 53 0 0 0
SMALL
GASTEIGER

@<TRIPOS>ATOM
     1 C         0.324393   -1.211799   1.788048 C.3        1 UNL1     0.1889
     2 C         0.664152   -0.809358   0.327725 C.3        1 UNL1     0.1342
     3 C         0.591137   -1.959785   -0.687978 C.3        1 UNL1     0.1174
     4 C         1.032034   -3.301534   -0.097694 C.3        1 UNL1     0.1456
     5 C         0.400263   -3.576793   1.279064 C.3        1 UNL1     0.2326
     6 O         0.718225   -2.518544   2.180107 O.3        1 UNL1     -0.3076
     7 O         -1.008936   -3.862352   1.216329 O.3        1 UNL1     -0.4605
     8 C         -1.471234   -4.828563   2.091682 C.ar        1 UNL1     0.1310
     9 C         -1.067081   -6.167859   2.107385 C.ar        1 UNL1     0.0226
     10 C         -1.582393   -7.06836   3.047308 C.ar        1 UNL1     0.1343
     11 C         -2.497444   -6.645383   4.010434 C.ar        1 UNL1     0.1007
     12 C         -2.939517   -5.320104   3.978975 C.ar        1 UNL1     0.1389
     13 C         -2.423212   -4.415489   3.032122 C.ar        1 UNL1     0.0229
     14 C         -3.010488   -7.533799   5.078917 C.2        1 UNL1     0.1740
     15 C         -3.808118   -6.859803   6.156444 C.3        1 UNL1     0.0520
     16 C         -4.704851   -5.813492   5.509094 C.3        1 UNL1     0.1322
     17 O         -3.917042   -4.824501   4.810294 O.3        1 UNL1     -0.4828
     18 C         -5.851099   -6.407829   4.687143 C.ar        1 UNL1     -0.0067
     19 C         -6.862116   -5.558158   4.193061 C.ar        1 UNL1     -0.0516
     20 C         -7.949214   -6.075236   3.478352 C.ar        1 UNL1     -0.0198
     21 C         -8.040407   -7.437926   3.25793 C.ar        1 UNL1     0.1169
     22 C         -7.043478   -8.296339   3.703013 C.ar        1 UNL1     -0.0198
     23 C         -5.946886   -7.777422   4.401774 C.ar        1 UNL1     -0.0516
     24 O         -9.132719   -7.909218   2.590742 O.3        1 UNL1     -0.5068
     25 O         -2.747854   -8.7317   5.146312 O.2        1 UNL1     -0.2917
     26 O         -1.147918   -8.361144   3.008223 O.3        1 UNL1     -0.5058
     27 O         -1.019449   -0.93858   2.151679 O.3        1 UNL1     -0.3648
     28 O         2.008741   -0.295689   0.297243 O.3        1 UNL1     -0.3841
     29 O         -0.701627   -2.019819   -1.294023 O.3        1 UNL1     -0.3863
     30 O         2.469478   -3.308377   0.041576 O.3        1 UNL1     -0.3829
     31 H         0.917619   -0.559658   2.438336 H        1 UNL1     0.0937
     32 H         0.0   0.0   -0.0 H        1 UNL1     0.0671
     33 H         1.286792   -1.728858   -1.506792 H        1 UNL1     0.0649
     34 H         0.772597   -4.115318   -0.783879 H        1 UNL1     0.0683
     35 H         0.926665   -4.470143   1.637818 H        1 UNL1     0.1085
     36 H         -0.317145   -6.545252   1.420879 H        1 UNL1     0.0691
     37 H         -2.784516   -3.389363   3.027938 H        1 UNL1     0.0691
     38 H         -3.100135   -6.39718   6.852338 H        1 UNL1     0.0385
     39 H         -4.381899   -7.615227   6.704064 H        1 UNL1     0.0385
     40 H         -5.189042   -5.254826   6.32148 H        1 UNL1     0.0789
     41 H         -6.818265   -4.485953   4.360704 H        1 UNL1     0.0623
     42 H         -8.728505   -5.411093   3.112794 H        1 UNL1     0.0654
     43 H         -7.097319   -9.363368   3.522846 H        1 UNL1     0.0654
     44 H         -5.181246   -8.475792   4.725686 H        1 UNL1     0.0623
     45 H         -9.181556   -7.464053   1.729255 H        1 UNL1     0.2921
     46 H         -0.951225   -8.663707   3.908878 H        1 UNL1     0.2922
     47 H         -1.254694   -0.032471   1.907781 H        1 UNL1     0.2126
     48 H         2.200975   0.038269   1.194601 H        1 UNL1     0.2101
     49 H         -1.339609   -1.519298   -0.760871 H        1 UNL1     0.2100
     50 H         2.720006   -2.557861   0.619221 H        1 UNL1     0.2102
@<TRIPOS>BOND
     1     1     2    1
     2     1     6    1
     3     2     3    1
     4     3     4    1
     5     3    29    1
     6     3    33    1
     7     4     5    1
     8     5     6    1
     9     5     7    1
    10     5    35    1
    11     7     8    1
    12     8     9   ar
    13     8    13   ar
    14     9    10   ar
    15     9    36    1
    16    10    11   ar
    17    10    26    1
    18    11    12   ar
    19    11    14    1
    20    12    13   ar
    21    12    17    1
    22    13    37    1
    23    14    15    1
    24    14    25    2
    25    15    16    1
    26    15    38    1
    27    15    39    1
    28    16    17    1
    29    16    18    1
    30    16    40    1
    31    18    19   ar
    32    18    23   ar
    33    19    20   ar
    34    19    41    1
    35    20    21   ar
    36    20    42    1
    37    21    22   ar
    38    21    24    1
    39    22    23   ar
    40    22    43    1
    41    23    44    1
    42    24    45    1
    43    26    46    1
    44    27    47    1
    45    28    48    1
    46    29    49    1
    47    30    50    1
    48     1    31    1
    49     1    27    1
    50     2    32    1
    51     2    28    1
    52     4    34    1
    53     4    30    1
