@<TRIPOS>MOLECULE
*****
 50 53 0 0 0
SMALL
GASTEIGER

@<TRIPOS>ATOM
     1 C         0.668661   -1.853576   0.942313 C.3        1 UNL1     0.1889
     2 C         -0.0884   -0.498642   0.973193 C.3        1 UNL1     0.1342
     3 C         0.371696   0.468019   2.075166 C.3        1 UNL1     0.1174
     4 C         0.78952   -0.251965   3.359752 C.3        1 UNL1     0.1456
     5 C         1.712603   -1.454053   3.089074 C.3        1 UNL1     0.2326
     6 O         1.072139   -2.36878   2.202537 O.3        1 UNL1     -0.3076
     7 O         3.032597   -1.07723   2.656708 O.3        1 UNL1     -0.4605
     8 C         3.194886   -0.89229   1.295463 C.ar        1 UNL1     0.1310
     9 C         3.638815   0.285631   0.684947 C.ar        1 UNL1     0.0226
     10 C         3.787267   0.369063   -0.704622 C.ar        1 UNL1     0.1343
     11 C         3.517857   -0.732101   -1.516223 C.ar        1 UNL1     0.1007
     12 C         3.034698   -1.900882   -0.921838 C.ar        1 UNL1     0.1389
     13 C         2.882993   -1.983675   0.475145 C.ar        1 UNL1     0.0229
     14 C         3.737458   -0.725769   -2.981109 C.2        1 UNL1     0.1740
     15 C         3.610135   -2.056582   -3.662484 C.3        1 UNL1     0.0520
     16 C         2.431782   -2.800831   -3.049674 C.3        1 UNL1     0.1322
     17 O         2.635908   -3.007801   -1.634554 O.3        1 UNL1     -0.4828
     18 C         1.069851   -2.204674   -3.413633 C.ar        1 UNL1     -0.0067
     19 C         1.009838   -0.930214   -4.013936 C.ar        1 UNL1     -0.0516
     20 C         -0.221137   -0.335784   -4.316121 C.ar        1 UNL1     -0.0198
     21 C         -1.396687   -1.000896   -4.016897 C.ar        1 UNL1     0.1169
     22 C         -1.369511   -2.271287   -3.456356 C.ar        1 UNL1     -0.0198
     23 C         -0.138391   -2.873758   -3.170998 C.ar        1 UNL1     -0.0516
     24 O         -2.576956   -0.374572   -4.290912 O.3        1 UNL1     -0.5068
     25 O         4.0811   0.272335   -3.60895 O.2        1 UNL1     -0.2917
     26 O         4.223218   1.546996   -1.237544 O.3        1 UNL1     -0.5058
     27 O         1.727782   -1.888042   -0.001011 O.3        1 UNL1     -0.3648
     28 O         -1.486836   -0.762389   1.191179 O.3        1 UNL1     -0.3841
     29 O         1.379939   1.353741   1.584172 O.3        1 UNL1     -0.3863
     30 O         -0.391819   -0.719368   4.046529 O.3        1 UNL1     -0.3829
     31 H         -0.04316   -2.601367   0.575982 H        1 UNL1     0.0937
     32 H         0.0   0.0   0.0 H        1 UNL1     0.0671
     33 H         -0.480779   1.111332   2.334309 H        1 UNL1     0.0649
     34 H         1.295824   0.448373   4.033239 H        1 UNL1     0.0683
     35 H         1.788493   -1.953845   4.062895 H        1 UNL1     0.1085
     36 H         3.917963   1.158357   1.265073 H        1 UNL1     0.0691
     37 H         2.504025   -2.904542   0.913185 H        1 UNL1     0.0691
     38 H         4.547034   -2.601058   -3.503446 H        1 UNL1     0.0385
     39 H         3.485128   -1.898115   -4.739072 H        1 UNL1     0.0385
     40 H         2.429914   -3.812445   -3.477639 H        1 UNL1     0.0789
     41 H         1.918205   -0.383735   -4.250328 H        1 UNL1     0.0623
     42 H         -0.254444   0.652469   -4.768069 H        1 UNL1     0.0654
     43 H         -2.283884   -2.807381   -3.231777 H        1 UNL1     0.0654
     44 H         -0.154379   -3.871454   -2.742989 H        1 UNL1     0.0623
     45 H         -2.381007   0.511283   -4.63672 H        1 UNL1     0.2921
     46 H         4.95726   1.373885   -1.847975 H        1 UNL1     0.2922
     47 H         1.65236   -1.14541   -0.616373 H        1 UNL1     0.2126
     48 H         -1.7312   -1.491248   0.588865 H        1 UNL1     0.2101
     49 H         1.994968   0.868544   1.011357 H        1 UNL1     0.2100
     50 H         -0.686566   -0.010989   4.655657 H        1 UNL1     0.2102
@<TRIPOS>BOND
     1     1     2    1
     2     1     6    1
     3     2     3    1
     4     3     4    1
     5     3    29    1
     6     3    33    1
     7     4     5    1
     8     5     6    1
     9     5     7    1
    10     5    35    1
    11     7     8    1
    12     8     9   ar
    13     8    13   ar
    14     9    10   ar
    15     9    36    1
    16    10    11   ar
    17    10    26    1
    18    11    12   ar
    19    11    14    1
    20    12    13   ar
    21    12    17    1
    22    13    37    1
    23    14    15    1
    24    14    25    2
    25    15    16    1
    26    15    38    1
    27    15    39    1
    28    16    17    1
    29    16    18    1
    30    16    40    1
    31    18    19   ar
    32    18    23   ar
    33    19    20   ar
    34    19    41    1
    35    20    21   ar
    36    20    42    1
    37    21    22   ar
    38    21    24    1
    39    22    23   ar
    40    22    43    1
    41    23    44    1
    42    24    45    1
    43    26    46    1
    44    27    47    1
    45    28    48    1
    46    29    49    1
    47    30    50    1
    48     1    31    1
    49     1    27    1
    50     2    32    1
    51     2    28    1
    52     4    34    1
    53     4    30    1
