@<TRIPOS>MOLECULE
*****
 50 53 0 0 0
SMALL
GASTEIGER

@<TRIPOS>ATOM
     1 C         -0.335811   -1.333053   1.697352 C.3        1 UNL1     0.1889
     2 C         -0.462817   -0.975974   0.191927 C.3        1 UNL1     0.1342
     3 C         -1.902412   -0.962085   -0.344581 C.3        1 UNL1     0.1174
     4 C         -2.790145   -2.023243   0.310393 C.3        1 UNL1     0.1456
     5 C         -2.642083   -2.052801   1.84257 C.3        1 UNL1     0.2326
     6 O         -1.277983   -2.271726   2.194948 O.3        1 UNL1     -0.3076
     7 O         -3.218627   -0.907608   2.496368 O.3        1 UNL1     -0.4605
     8 C         -3.731499   -1.126672   3.762268 C.ar        1 UNL1     0.1310
     9 C         -4.548741   -2.20073   4.130798 C.ar        1 UNL1     0.0226
     10 C         -5.004985   -2.344865   5.446461 C.ar        1 UNL1     0.1343
     11 C         -4.635148   -1.430495   6.431849 C.ar        1 UNL1     0.1007
     12 C         -3.85311   -0.331349   6.067049 C.ar        1 UNL1     0.1389
     13 C         -3.396665   -0.185209   4.743519 C.ar        1 UNL1     0.0229
     14 C         -5.019355   -1.580379   7.854548 C.2        1 UNL1     0.1740
     15 C         -4.352824   -0.634823   8.810167 C.3        1 UNL1     0.0520
     16 C         -4.281945   0.739017   8.157866 C.3        1 UNL1     0.1322
     17 O         -3.520305   0.685677   6.931436 O.3        1 UNL1     -0.4828
     18 C         -5.640902   1.431746   8.031037 C.ar        1 UNL1     -0.0067
     19 C         -6.016152   1.999694   6.796195 C.ar        1 UNL1     -0.0516
     20 C         -7.231096   2.6816   6.658801 C.ar        1 UNL1     -0.0198
     21 C         -8.074287   2.808501   7.748183 C.ar        1 UNL1     0.1169
     22 C         -7.747774   2.231218   8.968418 C.ar        1 UNL1     -0.0198
     23 C         -6.541355   1.53338   9.1012 C.ar        1 UNL1     -0.0516
     24 O         -9.231585   3.511992   7.586441 O.3        1 UNL1     -0.5068
     25 O         -5.769136   -2.463263   8.262996 O.2        1 UNL1     -0.2917
     26 O         -5.799998   -3.414047   5.740381 O.3        1 UNL1     -0.5058
     27 O         -0.232546   -0.197148   2.54106 O.3        1 UNL1     -0.3648
     28 O         0.269558   -1.95224   -0.571772 O.3        1 UNL1     -0.3841
     29 O         -2.460132   0.351277   -0.266081 O.3        1 UNL1     -0.3863
     30 O         -2.441282   -3.322566   -0.214722 O.3        1 UNL1     -0.3829
     31 H         0.624617   -1.846174   1.817201 H        1 UNL1     0.0937
     32 H         0.0   0.0   0.0 H        1 UNL1     0.0671
     33 H         -1.862896   -1.198666   -1.417049 H        1 UNL1     0.0649
     34 H         -3.839684   -1.844275   0.05186 H        1 UNL1     0.0683
     35 H         -3.197436   -2.949549   2.144738 H        1 UNL1     0.1085
     36 H         -4.825416   -2.975432   3.424109 H        1 UNL1     0.0691
     37 H         -2.790002   0.679983   4.484877 H        1 UNL1     0.0691
     38 H         -3.35098   -1.025519   9.017998 H        1 UNL1     0.0385
     39 H         -4.915318   -0.61846   9.749907 H        1 UNL1     0.0385
     40 H         -3.688679   1.382333   8.821719 H        1 UNL1     0.0789
     41 H         -5.36761   1.92171   5.92846 H        1 UNL1     0.0623
     42 H         -7.503741   3.125441   5.704505 H        1 UNL1     0.0654
     43 H         -8.40768   2.31163   9.82397 H        1 UNL1     0.0654
     44 H         -6.323177   1.086005   10.066134 H        1 UNL1     0.0623
     45 H         -9.004882   4.420661   7.330231 H        1 UNL1     0.2921
     46 H         -5.397889   -3.928622   6.457969 H        1 UNL1     0.2922
     47 H         0.511029   0.357412   2.266434 H        1 UNL1     0.2126
     48 H         1.201818   -1.887119   -0.288254 H        1 UNL1     0.2101
     49 H         -2.019833   0.935443   -0.903796 H        1 UNL1     0.2100
     50 H         -2.672331   -3.335006   -1.166654 H        1 UNL1     0.2102
@<TRIPOS>BOND
     1     1     2    1
     2     1     6    1
     3     2     3    1
     4     3     4    1
     5     3    29    1
     6     3    33    1
     7     4     5    1
     8     5     6    1
     9     5     7    1
    10     5    35    1
    11     7     8    1
    12     8     9   ar
    13     8    13   ar
    14     9    10   ar
    15     9    36    1
    16    10    11   ar
    17    10    26    1
    18    11    12   ar
    19    11    14    1
    20    12    13   ar
    21    12    17    1
    22    13    37    1
    23    14    15    1
    24    14    25    2
    25    15    16    1
    26    15    38    1
    27    15    39    1
    28    16    17    1
    29    16    18    1
    30    16    40    1
    31    18    19   ar
    32    18    23   ar
    33    19    20   ar
    34    19    41    1
    35    20    21   ar
    36    20    42    1
    37    21    22   ar
    38    21    24    1
    39    22    23   ar
    40    22    43    1
    41    23    44    1
    42    24    45    1
    43    26    46    1
    44    27    47    1
    45    28    48    1
    46    29    49    1
    47    30    50    1
    48     1    31    1
    49     1    27    1
    50     2    32    1
    51     2    28    1
    52     4    34    1
    53     4    30    1
