@<TRIPOS>MOLECULE
*****
 50 53 0 0 0
SMALL
GASTEIGER

@<TRIPOS>ATOM
     1 C         0.079603   -0.37679   2.149999 C.3        1 UNL1     0.1889
     2 C         -0.700495   -0.084327   0.840094 C.3        1 UNL1     0.1342
     3 C         -1.581855   1.173282   0.885809 C.3        1 UNL1     0.1174
     4 C         -2.201709   1.413811   2.264592 C.3        1 UNL1     0.1456
     5 C         -1.178674   1.265846   3.405587 C.3        1 UNL1     0.2326
     6 O         -0.580776   -0.027633   3.357634 O.3        1 UNL1     -0.3076
     7 O         -0.214657   2.333428   3.453144 O.3        1 UNL1     -0.4605
     8 C         -0.639739   3.508036   4.04739 C.ar        1 UNL1     0.1310
     9 C         -1.936129   3.759463   4.509404 C.ar        1 UNL1     0.0226
     10 C         -2.26517   4.978328   5.114387 C.ar        1 UNL1     0.1343
     11 C         -1.298893   5.967267   5.293686 C.ar        1 UNL1     0.1007
     12 C         -0.011013   5.743728   4.79954 C.ar        1 UNL1     0.1389
     13 C         0.318919   4.51911   4.188896 C.ar        1 UNL1     0.0229
     14 C         -1.570738   7.239931   6.001202 C.2        1 UNL1     0.1740
     15 C         -0.368443   8.086914   6.298951 C.3        1 UNL1     0.0520
     16 C         0.562191   8.042716   5.094824 C.3        1 UNL1     0.1322
     17 O         0.988179   6.688828   4.825394 O.3        1 UNL1     -0.4828
     18 C         0.02601   8.793899   3.873776 C.ar        1 UNL1     -0.0067
     19 C         -0.661939   8.081934   2.869762 C.ar        1 UNL1     -0.0516
     20 C         -1.123731   8.729915   1.717881 C.ar        1 UNL1     -0.0198
     21 C         -0.897936   10.085037   1.555132 C.ar        1 UNL1     0.1169
     22 C         -0.252983   10.819764   2.541565 C.ar        1 UNL1     -0.0198
     23 C         0.19266   10.175602   3.701959 C.ar        1 UNL1     -0.0516
     24 O         -1.328903   10.674438   0.403058 O.3        1 UNL1     -0.5068
     25 O         -2.685269   7.566793   6.400536 O.2        1 UNL1     -0.2917
     26 O         -3.5478   5.160977   5.542271 O.3        1 UNL1     -0.5058
     27 O         1.417152   0.095762   2.128953 O.3        1 UNL1     -0.3648
     28 O         -1.56397   -1.202773   0.564058 O.3        1 UNL1     -0.3841
     29 O         -0.869365   2.309954   0.393399 O.3        1 UNL1     -0.3863
     30 O         -3.271543   0.46673   2.474788 O.3        1 UNL1     -0.3829
     31 H         0.179329   -1.465586   2.218248 H        1 UNL1     0.0937
     32 H         0.0   0.0   0.0 H        1 UNL1     0.0671
     33 H         -2.41477   1.024729   0.18445 H        1 UNL1     0.0649
     34 H         -2.646629   2.414209   2.305247 H        1 UNL1     0.0683
     35 H         -1.790551   1.300851   4.315675 H        1 UNL1     0.1085
     36 H         -2.717969   3.010253   4.449991 H        1 UNL1     0.0691
     37 H         1.328366   4.370323   3.811572 H        1 UNL1     0.0691
     38 H         0.116939   7.671849   7.1887 H        1 UNL1     0.0385
     39 H         -0.695982   9.105845   6.531923 H        1 UNL1     0.0385
     40 H         1.483598   8.569162   5.378343 H        1 UNL1     0.0789
     41 H         -0.843749   7.015808   2.969624 H        1 UNL1     0.0623
     42 H         -1.642432   8.167616   0.945365 H        1 UNL1     0.0654
     43 H         -0.084195   11.884297   2.431152 H        1 UNL1     0.0654
     44 H         0.68336   10.782546   4.456728 H        1 UNL1     0.0623
     45 H         -1.034496   10.132978   -0.347183 H        1 UNL1     0.2921
     46 H         -3.577813   5.099558   6.510123 H        1 UNL1     0.2922
     47 H         1.431077   1.056564   2.017038 H        1 UNL1     0.2126
     48 H         -1.155238   -1.982623   0.986554 H        1 UNL1     0.2101
     49 H         -1.404292   3.11109   0.510988 H        1 UNL1     0.2100
     50 H         -3.915524   0.871445   3.092208 H        1 UNL1     0.2102
@<TRIPOS>BOND
     1     1     2    1
     2     1     6    1
     3     2     3    1
     4     3     4    1
     5     3    29    1
     6     3    33    1
     7     4     5    1
     8     5     6    1
     9     5     7    1
    10     5    35    1
    11     7     8    1
    12     8     9   ar
    13     8    13   ar
    14     9    10   ar
    15     9    36    1
    16    10    11   ar
    17    10    26    1
    18    11    12   ar
    19    11    14    1
    20    12    13   ar
    21    12    17    1
    22    13    37    1
    23    14    15    1
    24    14    25    2
    25    15    16    1
    26    15    38    1
    27    15    39    1
    28    16    17    1
    29    16    18    1
    30    16    40    1
    31    18    19   ar
    32    18    23   ar
    33    19    20   ar
    34    19    41    1
    35    20    21   ar
    36    20    42    1
    37    21    22   ar
    38    21    24    1
    39    22    23   ar
    40    22    43    1
    41    23    44    1
    42    24    45    1
    43    26    46    1
    44    27    47    1
    45    28    48    1
    46    29    49    1
    47    30    50    1
    48     1    31    1
    49     1    27    1
    50     2    32    1
    51     2    28    1
    52     4    34    1
    53     4    30    1
