@<TRIPOS>MOLECULE
*****
 50 53 0 0 0
SMALL
GASTEIGER

@<TRIPOS>ATOM
     1 C         -0.316447   -1.374985   1.667358 C.3        1 UNL1     0.1889
     2 C         -0.459844   -0.980966   0.172658 C.3        1 UNL1     0.1342
     3 C         -1.905096   -0.955527   -0.347983 C.3        1 UNL1     0.1174
     4 C         -2.78481   -2.033596   0.289972 C.3        1 UNL1     0.1456
     5 C         -2.620375   -2.10083   1.819287 C.3        1 UNL1     0.2326
     6 O         -1.25239   -2.326781   2.1516 O.3        1 UNL1     -0.3076
     7 O         -3.19096   -0.972826   2.507299 O.3        1 UNL1     -0.4605
     8 C         -3.700309   -1.226102   3.768229 C.ar        1 UNL1     0.1310
     9 C         -4.514164   -2.311372   4.110469 C.ar        1 UNL1     0.0226
     10 C         -4.966942   -2.490909   5.422971 C.ar        1 UNL1     0.1343
     11 C         -4.5969   -1.6017   6.431047 C.ar        1 UNL1     0.1007
     12 C         -3.8183   -0.491532   6.093272 C.ar        1 UNL1     0.1389
     13 C         -3.365343   -0.309785   4.772958 C.ar        1 UNL1     0.0229
     14 C         -4.977375   -1.789606   7.850231 C.2        1 UNL1     0.1740
     15 C         -4.310784   -0.867734   8.828678 C.3        1 UNL1     0.0520
     16 C         -4.244662   0.522838   8.212321 C.3        1 UNL1     0.1322
     17 O         -3.485817   0.503369   6.983157 O.3        1 UNL1     -0.4828
     18 C         -5.605531   1.215385   8.106775 C.ar        1 UNL1     -0.0067
     19 C         -5.737675   2.363093   7.298371 C.ar        1 UNL1     -0.0516
     20 C         -6.955973   3.047994   7.216981 C.ar        1 UNL1     -0.0198
     21 C         -8.045089   2.600532   7.943226 C.ar        1 UNL1     0.1169
     22 C         -7.955286   1.454069   8.721941 C.ar        1 UNL1     -0.0198
     23 C         -6.742209   0.758372   8.789049 C.ar        1 UNL1     -0.0516
     24 O         -9.204553   3.315007   7.868606 O.3        1 UNL1     -0.5068
     25 O         -5.724119   -2.684649   8.237214 O.2        1 UNL1     -0.2917
     26 O         -5.758757   -3.569303   5.690703 O.3        1 UNL1     -0.5058
     27 O         -0.205227   -0.260154   2.537742 O.3        1 UNL1     -0.3648
     28 O         0.265235   -1.937195   -0.622698 O.3        1 UNL1     -0.3841
     29 O         -2.463154   0.354833   -0.231104 O.3        1 UNL1     -0.3863
     30 O         -2.440378   -3.319132   -0.270789 O.3        1 UNL1     -0.3829
     31 H         0.645677   -1.889774   1.76425 H        1 UNL1     0.0937
     32 H         0.0   0.0   0.0 H        1 UNL1     0.0671
     33 H         -1.876812   -1.165487   -1.426332 H        1 UNL1     0.0649
     34 H         -3.837214   -1.849536   0.047133 H        1 UNL1     0.0683
     35 H         -3.171646   -3.005428   2.10509 H        1 UNL1     0.1085
     36 H         -4.790708   -3.068016   3.384429 H        1 UNL1     0.0691
     37 H         -2.761319   0.563317   4.5356 H        1 UNL1     0.0691
     38 H         -3.30754   -1.261323   9.023913 H        1 UNL1     0.0385
     39 H         -4.87108   -0.877265   9.769823 H        1 UNL1     0.0385
     40 H         -3.651325   1.150018   8.891376 H        1 UNL1     0.0789
     41 H         -4.895136   2.739725   6.725722 H        1 UNL1     0.0623
     42 H         -7.041961   3.938629   6.599416 H        1 UNL1     0.0654
     43 H         -8.806135   1.086289   9.282926 H        1 UNL1     0.0654
     44 H         -6.710834   -0.139359   9.398917 H        1 UNL1     0.0623
     45 H         -9.039804   4.204646   8.22091 H        1 UNL1     0.2921
     46 H         -5.365709   -4.088674   6.409855 H        1 UNL1     0.2922
     47 H         0.521883   0.312754   2.256767 H        1 UNL1     0.2126
     48 H         1.211064   -1.816887   -0.411355 H        1 UNL1     0.2101
     49 H         -2.03636   0.953035   -0.864977 H        1 UNL1     0.2100
     50 H         -2.707468   -3.318268   -1.213325 H        1 UNL1     0.2102
@<TRIPOS>BOND
     1     1     2    1
     2     1     6    1
     3     2     3    1
     4     3     4    1
     5     3    29    1
     6     3    33    1
     7     4     5    1
     8     5     6    1
     9     5     7    1
    10     5    35    1
    11     7     8    1
    12     8     9   ar
    13     8    13   ar
    14     9    10   ar
    15     9    36    1
    16    10    11   ar
    17    10    26    1
    18    11    12   ar
    19    11    14    1
    20    12    13   ar
    21    12    17    1
    22    13    37    1
    23    14    15    1
    24    14    25    2
    25    15    16    1
    26    15    38    1
    27    15    39    1
    28    16    17    1
    29    16    18    1
    30    16    40    1
    31    18    19   ar
    32    18    23   ar
    33    19    20   ar
    34    19    41    1
    35    20    21   ar
    36    20    42    1
    37    21    22   ar
    38    21    24    1
    39    22    23   ar
    40    22    43    1
    41    23    44    1
    42    24    45    1
    43    26    46    1
    44    27    47    1
    45    28    48    1
    46    29    49    1
    47    30    50    1
    48     1    31    1
    49     1    27    1
    50     2    32    1
    51     2    28    1
    52     4    34    1
    53     4    30    1
