@<TRIPOS>MOLECULE
*****
 50 53 0 0 0
SMALL
GASTEIGER

@<TRIPOS>ATOM
     1 C         -0.563803   1.10002   1.800802 C.3        1 UNL1     0.1889
     2 C         0.27867   0.026468   1.060756 C.3        1 UNL1     0.1342
     3 C         0.166702   -1.390573   1.643785 C.3        1 UNL1     0.1174
     4 C         0.012153   -1.39526   3.166681 C.3        1 UNL1     0.1456
     5 C         -1.036447   -0.380007   3.656642 C.3        1 UNL1     0.2326
     6 O         -0.694833   0.928246   3.204269 O.3        1 UNL1     -0.3076
     7 O         -2.389121   -0.753837   3.337513 O.3        1 UNL1     -0.4605
     8 C         -3.357294   -0.356762   4.242223 C.ar        1 UNL1     0.1310
     9 C         -3.266107   -0.47985   5.632847 C.ar        1 UNL1     0.0226
     10 C         -4.295881   -0.030846   6.468229 C.ar        1 UNL1     0.1343
     11 C         -5.432554   0.574395   5.933908 C.ar        1 UNL1     0.1007
     12 C         -5.55328   0.665732   4.544712 C.ar        1 UNL1     0.1389
     13 C         -4.518882   0.211789   3.704837 C.ar        1 UNL1     0.0229
     14 C         -6.512662   1.142256   6.773583 C.2        1 UNL1     0.1740
     15 C         -7.545558   1.949997   6.044044 C.3        1 UNL1     0.0520
     16 C         -7.860323   1.253333   4.727404 C.3        1 UNL1     0.1322
     17 O         -6.675054   1.144581   3.908636 O.3        1 UNL1     -0.4828
     18 C         -8.639221   -0.053839   4.892766 C.ar        1 UNL1     -0.0067
     19 C         -9.979548   -0.120834   4.460043 C.ar        1 UNL1     -0.0516
     20 C         -10.734918   -1.285818   4.63946 C.ar        1 UNL1     -0.0198
     21 C         -10.165014   -2.385625   5.255466 C.ar        1 UNL1     0.1169
     22 C         -8.837299   -2.36154   5.6622 C.ar        1 UNL1     -0.0198
     23 C         -8.076154   -1.202957   5.466245 C.ar        1 UNL1     -0.0516
     24 O         -10.942833   -3.489554   5.447139 O.3        1 UNL1     -0.5068
     25 O         -6.541182   1.042087   7.997363 O.2        1 UNL1     -0.2917
     26 O         -4.145574   -0.181302   7.815951 O.3        1 UNL1     -0.5058
     27 O         -1.815738   1.359082   1.185716 O.3        1 UNL1     -0.3648
     28 O         1.665045   0.408848   1.127518 O.3        1 UNL1     -0.3841
     29 O         -0.859636   -2.131897   0.981063 O.3        1 UNL1     -0.3863
     30 O         1.283978   -1.077997   3.772894 O.3        1 UNL1     -0.3829
     31 H         -0.017299   2.044941   1.708404 H        1 UNL1     0.0937
     32 H         0.0   -0.0   0.0 H        1 UNL1     0.0671
     33 H         1.102175   -1.921115   1.417651 H        1 UNL1     0.0649
     34 H         -0.266091   -2.397379   3.511265 H        1 UNL1     0.0683
     35 H         -0.916849   -0.381706   4.747317 H        1 UNL1     0.1085
     36 H         -2.384229   -0.890324   6.11235 H        1 UNL1     0.0691
     37 H         -4.637752   0.293309   2.626544 H        1 UNL1     0.0691
     38 H         -7.126017   2.947097   5.872859 H        1 UNL1     0.0385
     39 H         -8.432067   2.056232   6.678548 H        1 UNL1     0.0385
     40 H         -8.525688   1.918318   4.160302 H        1 UNL1     0.0789
     41 H         -10.45267   0.73198   3.982012 H        1 UNL1     0.0623
     42 H         -11.771101   -1.32104   4.312205 H        1 UNL1     0.0654
     43 H         -8.376575   -3.222284   6.132054 H        1 UNL1     0.0654
     44 H         -7.038965   -1.222914   5.786691 H        1 UNL1     0.0623
     45 H         -10.737412   -4.134146   4.750706 H        1 UNL1     0.2921
     46 H         -4.506051   0.596424   8.270497 H        1 UNL1     0.2922
     47 H         -1.792088   2.208311   0.722993 H        1 UNL1     0.2126
     48 H         2.170802   -0.40485   1.316825 H        1 UNL1     0.2101
     49 H         -1.681686   -2.089483   1.495095 H        1 UNL1     0.2100
     50 H         1.255005   -0.142548   4.062392 H        1 UNL1     0.2102
@<TRIPOS>BOND
     1     1     2    1
     2     1     6    1
     3     2     3    1
     4     3     4    1
     5     3    29    1
     6     3    33    1
     7     4     5    1
     8     5     6    1
     9     5     7    1
    10     5    35    1
    11     7     8    1
    12     8     9   ar
    13     8    13   ar
    14     9    10   ar
    15     9    36    1
    16    10    11   ar
    17    10    26    1
    18    11    12   ar
    19    11    14    1
    20    12    13   ar
    21    12    17    1
    22    13    37    1
    23    14    15    1
    24    14    25    2
    25    15    16    1
    26    15    38    1
    27    15    39    1
    28    16    17    1
    29    16    18    1
    30    16    40    1
    31    18    19   ar
    32    18    23   ar
    33    19    20   ar
    34    19    41    1
    35    20    21   ar
    36    20    42    1
    37    21    22   ar
    38    21    24    1
    39    22    23   ar
    40    22    43    1
    41    23    44    1
    42    24    45    1
    43    26    46    1
    44    27    47    1
    45    28    48    1
    46    29    49    1
    47    30    50    1
    48     1    31    1
    49     1    27    1
    50     2    32    1
    51     2    28    1
    52     4    34    1
    53     4    30    1
