@<TRIPOS>MOLECULE
*****
 50 53 0 0 0
SMALL
GASTEIGER

@<TRIPOS>ATOM
     1 C         -0.733895   1.981932   -0.551495 C.3        1 UNL1     0.1889
     2 C         -0.013275   0.648016   -0.885133 C.3        1 UNL1     0.1342
     3 C         1.421601   0.808282   -1.410406 C.3        1 UNL1     0.1174
     4 C         1.601504   2.059951   -2.273006 C.3        1 UNL1     0.1456
     5 C         0.973765   3.312234   -1.634182 C.3        1 UNL1     0.2326
     6 O         -0.411507   3.087147   -1.382735 O.3        1 UNL1     -0.3076
     7 O         1.688954   3.785969   -0.478586 O.3        1 UNL1     -0.4605
     8 C         2.716381   4.678709   -0.725438 C.ar        1 UNL1     0.1310
     9 C         3.27197   5.554543   0.213464 C.ar        1 UNL1     0.0226
     10 C         4.324719   6.411059   -0.130054 C.ar        1 UNL1     0.1343
     11 C         4.863808   6.395565   -1.415738 C.ar        1 UNL1     0.1007
     12 C         4.290271   5.554624   -2.37316 C.ar        1 UNL1     0.1389
     13 C         3.230002   4.695394   -2.028217 C.ar        1 UNL1     0.0229
     14 C         6.03065   7.218633   -1.809681 C.2        1 UNL1     0.1740
     15 C         6.61514   6.913384   -3.157547 C.3        1 UNL1     0.0520
     16 C         5.473058   6.655852   -4.130832 C.3        1 UNL1     0.1322
     17 O         4.670509   5.536448   -3.695035 O.3        1 UNL1     -0.4828
     18 C         4.671802   7.910539   -4.486463 C.ar        1 UNL1     -0.0067
     19 C         3.666271   8.362419   -3.607301 C.ar        1 UNL1     -0.0516
     20 C         2.883124   9.478628   -3.924667 C.ar        1 UNL1     -0.0198
     21 C         3.09028   10.145655   -5.118814 C.ar        1 UNL1     0.1169
     22 C         4.095164   9.744828   -5.989667 C.ar        1 UNL1     -0.0198
     23 C         4.89073   8.639801   -5.664021 C.ar        1 UNL1     -0.0516
     24 O         2.283031   11.205486   -5.41123 O.3        1 UNL1     -0.5068
     25 O         6.554871   8.046607   -1.069318 O.2        1 UNL1     -0.2917
     26 O         4.821028   7.241715   0.831857 O.3        1 UNL1     -0.5058
     27 O         -0.677103   2.326635   0.823548 O.3        1 UNL1     -0.3648
     28 O         -0.768003   -0.036055   -1.90255 O.3        1 UNL1     -0.3841
     29 O         2.36486   0.733914   -0.339488 O.3        1 UNL1     -0.3863
     30 O         0.988134   1.839327   -3.561723 O.3        1 UNL1     -0.3829
     31 H         -1.799746   1.818522   -0.744726 H        1 UNL1     0.0937
     32 H         0.0   0.0   0.0 H        1 UNL1     0.0671
     33 H         1.641677   -0.055231   -2.053546 H        1 UNL1     0.0649
     34 H         2.667179   2.240809   -2.451968 H        1 UNL1     0.0683
     35 H         1.035335   4.071263   -2.424095 H        1 UNL1     0.1085
     36 H         2.93469   5.574623   1.243978 H        1 UNL1     0.0691
     37 H         2.80025   4.051141   -2.792249 H        1 UNL1     0.0691
     38 H         7.250015   6.027407   -3.050282 H        1 UNL1     0.0385
     39 H         7.246933   7.750779   -3.472803 H        1 UNL1     0.0385
     40 H         5.922178   6.32043   -5.075449 H        1 UNL1     0.0789
     41 H         3.477914   7.850574   -2.668052 H        1 UNL1     0.0623
     42 H         2.1029   9.810129   -3.243954 H        1 UNL1     0.0654
     43 H         4.275917   10.269092   -6.920466 H        1 UNL1     0.0654
     44 H         5.673592   8.360856   -6.362706 H        1 UNL1     0.0623
     45 H         2.805514   12.020011   -5.332003 H        1 UNL1     0.2921
     46 H         4.288142   7.157616   1.638314 H        1 UNL1     0.2922
     47 H         0.239781   2.322989   1.132044 H        1 UNL1     0.2126
     48 H         -0.117921   -0.455163   -2.498767 H        1 UNL1     0.2101
     49 H         1.975145   1.10158   0.469671 H        1 UNL1     0.2100
     50 H         0.382897   1.073307   -3.4804 H        1 UNL1     0.2102
@<TRIPOS>BOND
     1     1     2    1
     2     1     6    1
     3     2     3    1
     4     3     4    1
     5     3    29    1
     6     3    33    1
     7     4     5    1
     8     5     6    1
     9     5     7    1
    10     5    35    1
    11     7     8    1
    12     8     9   ar
    13     8    13   ar
    14     9    10   ar
    15     9    36    1
    16    10    11   ar
    17    10    26    1
    18    11    12   ar
    19    11    14    1
    20    12    13   ar
    21    12    17    1
    22    13    37    1
    23    14    15    1
    24    14    25    2
    25    15    16    1
    26    15    38    1
    27    15    39    1
    28    16    17    1
    29    16    18    1
    30    16    40    1
    31    18    19   ar
    32    18    23   ar
    33    19    20   ar
    34    19    41    1
    35    20    21   ar
    36    20    42    1
    37    21    22   ar
    38    21    24    1
    39    22    23   ar
    40    22    43    1
    41    23    44    1
    42    24    45    1
    43    26    46    1
    44    27    47    1
    45    28    48    1
    46    29    49    1
    47    30    50    1
    48     1    31    1
    49     1    27    1
    50     2    32    1
    51     2    28    1
    52     4    34    1
    53     4    30    1
