@<TRIPOS>MOLECULE
*****
 50 53 0 0 0
SMALL
GASTEIGER

@<TRIPOS>ATOM
     1 C         -0.33991   -1.334372   1.695499 C.3        1 UNL1     0.1889
     2 C         -0.465147   -0.975159   0.190434 C.3        1 UNL1     0.1342
     3 C         -1.904364   -0.957352   -0.346971 C.3        1 UNL1     0.1174
     4 C         -2.794914   -2.017301   0.306133 C.3        1 UNL1     0.1456
     5 C         -2.647898   -2.049074   1.838367 C.3        1 UNL1     0.2326
     6 O         -1.284521   -2.271519   2.191342 O.3        1 UNL1     -0.3076
     7 O         -3.222266   -0.903383   2.493205 O.3        1 UNL1     -0.4605
     8 C         -3.73644   -1.122838   3.758508 C.ar        1 UNL1     0.1310
     9 C         -4.556346   -2.195495   4.125199 C.ar        1 UNL1     0.0226
     10 C         -5.013754   -2.340211   5.440394 C.ar        1 UNL1     0.1343
     11 C         -4.642478   -1.427891   6.427139 C.ar        1 UNL1     0.1007
     12 C         -3.857722   -0.330072   6.064187 C.ar        1 UNL1     0.1389
     13 C         -3.400102   -0.183341   4.741128 C.ar        1 UNL1     0.0229
     14 C         -5.027931   -1.578651   7.849408 C.2        1 UNL1     0.1740
     15 C         -4.359872   -0.63578   8.806613 C.3        1 UNL1     0.0520
     16 C         -4.285468   0.738695   8.156045 C.3        1 UNL1     0.1322
     17 O         -3.523168   0.685137   6.930035 O.3        1 UNL1     -0.4828
     18 C         -5.642773   1.434654   8.029204 C.ar        1 UNL1     -0.0067
     19 C         -6.015554   2.005782   6.79508 C.ar        1 UNL1     -0.0516
     20 C         -7.22886   2.69062   6.657795 C.ar        1 UNL1     -0.0198
     21 C         -8.072844   2.817299   7.746588 C.ar        1 UNL1     0.1169
     22 C         -7.748806   2.236972   8.966039 C.ar        1 UNL1     -0.0198
     23 C         -6.544056   1.536228   9.098673 C.ar        1 UNL1     -0.0516
     24 O         -9.228432   3.523643   7.585053 O.3        1 UNL1     -0.5068
     25 O         -5.779969   -2.460336   8.256295 O.2        1 UNL1     -0.2917
     26 O         -5.811372   -3.407951   5.732495 O.3        1 UNL1     -0.5058
     27 O         -0.234613   -0.19974   2.540668 O.3        1 UNL1     -0.3648
     28 O         0.265504   -1.952142   -0.573999 O.3        1 UNL1     -0.3841
     29 O         -2.459161   0.357171   -0.267213 O.3        1 UNL1     -0.3863
     30 O         -2.448658   -3.316764   -0.220356 O.3        1 UNL1     -0.3829
     31 H         0.619277   -1.849813   1.815328 H        1 UNL1     0.0937
     32 H         0.0   0.0   0.0 H        1 UNL1     0.0671
     33 H         -1.864699   -1.192705   -1.419704 H        1 UNL1     0.0649
     34 H         -3.84388   -1.83564   0.047153 H        1 UNL1     0.0683
     35 H         -3.205471   -2.944933   2.139079 H        1 UNL1     0.1085
     36 H         -4.834322   -2.968701   3.417383 H        1 UNL1     0.0691
     37 H         -2.791318   0.680793   4.483935 H        1 UNL1     0.0691
     38 H         -3.359048   -1.028998   9.014599 H        1 UNL1     0.0385
     39 H         -4.922928   -0.619297   9.746014 H        1 UNL1     0.0385
     40 H         -3.691172   1.379852   8.821065 H        1 UNL1     0.0789
     41 H         -5.366329   1.928025   5.927836 H        1 UNL1     0.0623
     42 H         -7.499586   3.13688   5.704081 H        1 UNL1     0.0654
     43 H         -8.409377   2.317204   9.821094 H        1 UNL1     0.0654
     44 H         -6.327814   1.086534   10.062966 H        1 UNL1     0.0623
     45 H         -8.99934   4.433771   7.336257 H        1 UNL1     0.2921
     46 H         -5.411579   -3.92354   6.450648 H        1 UNL1     0.2922
     47 H         0.507859   0.355605   2.264648 H        1 UNL1     0.2126
     48 H         1.200532   -1.877757   -0.302111 H        1 UNL1     0.2101
     49 H         -2.019152   0.940395   -0.90599 H        1 UNL1     0.2100
     50 H         -2.684353   -3.329434   -1.171146 H        1 UNL1     0.2102
@<TRIPOS>BOND
     1     1     2    1
     2     1     6    1
     3     2     3    1
     4     3     4    1
     5     3    29    1
     6     3    33    1
     7     4     5    1
     8     5     6    1
     9     5     7    1
    10     5    35    1
    11     7     8    1
    12     8     9   ar
    13     8    13   ar
    14     9    10   ar
    15     9    36    1
    16    10    11   ar
    17    10    26    1
    18    11    12   ar
    19    11    14    1
    20    12    13   ar
    21    12    17    1
    22    13    37    1
    23    14    15    1
    24    14    25    2
    25    15    16    1
    26    15    38    1
    27    15    39    1
    28    16    17    1
    29    16    18    1
    30    16    40    1
    31    18    19   ar
    32    18    23   ar
    33    19    20   ar
    34    19    41    1
    35    20    21   ar
    36    20    42    1
    37    21    22   ar
    38    21    24    1
    39    22    23   ar
    40    22    43    1
    41    23    44    1
    42    24    45    1
    43    26    46    1
    44    27    47    1
    45    28    48    1
    46    29    49    1
    47    30    50    1
    48     1    31    1
    49     1    27    1
    50     2    32    1
    51     2    28    1
    52     4    34    1
    53     4    30    1
