@<TRIPOS>MOLECULE
*****
 50 53 0 0 0
SMALL
GASTEIGER

@<TRIPOS>ATOM
     1 C         -0.33903   -1.333288   1.696528 C.3        1 UNL1     0.1889
     2 C         -0.465702   -0.974698   0.191434 C.3        1 UNL1     0.1342
     3 C         -1.905517   -0.956008   -0.344335 C.3        1 UNL1     0.1174
     4 C         -2.79616   -2.014937   0.310295 C.3        1 UNL1     0.1456
     5 C         -2.647418   -2.046091   1.842375 C.3        1 UNL1     0.2326
     6 O         -1.283816   -2.269448   2.1939 O.3        1 UNL1     -0.3076
     7 O         -3.220129   -0.89963   2.497319 O.3        1 UNL1     -0.4605
     8 C         -4.136304   -1.168154   3.498342 C.ar        1 UNL1     0.1310
     9 C         -5.182173   -2.093426   3.412723 C.ar        1 UNL1     0.0226
     10 C         -6.049765   -2.306795   4.490527 C.ar        1 UNL1     0.1343
     11 C         -5.877768   -1.61658   5.689636 C.ar        1 UNL1     0.1007
     12 C         -4.862195   -0.660322   5.773101 C.ar        1 UNL1     0.1389
     13 C         -3.991605   -0.444058   4.688328 C.ar        1 UNL1     0.0229
     14 C         -6.712902   -1.863461   6.887865 C.2        1 UNL1     0.1740
     15 C         -6.249073   -1.198902   8.150708 C.3        1 UNL1     0.0520
     16 C         -5.765461   0.203369   7.807616 C.3        1 UNL1     0.1322
     17 O         -4.670669   0.152258   6.866399 O.3        1 UNL1     -0.4828
     18 C         -6.890853   1.16565   7.420016 C.ar        1 UNL1     -0.0067
     19 C         -6.761859   1.948561   6.254416 C.ar        1 UNL1     -0.0516
     20 C         -7.750804   2.87269   5.896737 C.ar        1 UNL1     -0.0198
     21 C         -8.867471   3.028204   6.698422 C.ar        1 UNL1     0.1169
     22 C         -9.038827   2.247872   7.834449 C.ar        1 UNL1     -0.0198
     23 C         -8.058816   1.310561   8.182419 C.ar        1 UNL1     -0.0516
     24 O         -9.791438   3.964776   6.338537 O.3        1 UNL1     -0.5068
     25 O         -7.679175   -2.621593   6.894012 O.2        1 UNL1     -0.2917
     26 O         -7.050346   -3.222437   4.342132 O.3        1 UNL1     -0.5058
     27 O         -0.231868   -0.198335   2.54103 O.3        1 UNL1     -0.3648
     28 O         0.263301   -1.952627   -0.573364 O.3        1 UNL1     -0.3841
     29 O         -2.459181   0.358993   -0.264575 O.3        1 UNL1     -0.3863
     30 O         -2.451536   -3.314927   -0.215964 O.3        1 UNL1     -0.3829
     31 H         0.619885   -1.849432   1.815508 H        1 UNL1     0.0937
     32 H         0.0   0.0   0.0 H        1 UNL1     0.0671
     33 H         -1.867265   -1.191907   -1.416999 H        1 UNL1     0.0649
     34 H         -3.845277   -1.832568   0.052427 H        1 UNL1     0.0683
     35 H         -3.205357   -2.941363   2.144155 H        1 UNL1     0.1085
     36 H         -5.334382   -2.701677   2.52786 H        1 UNL1     0.0691
     37 H         -3.209616   0.306876   4.778231 H        1 UNL1     0.0691
     38 H         -5.437488   -1.806087   8.565657 H        1 UNL1     0.0385
     39 H         -7.071941   -1.187792   8.87358 H        1 UNL1     0.0385
     40 H         -5.323459   0.625668   8.720205 H        1 UNL1     0.0789
     41 H         -5.890476   1.85177   5.613344 H        1 UNL1     0.0623
     42 H         -7.634133   3.479025   5.001886 H        1 UNL1     0.0654
     43 H         -9.91659   2.350842   8.461218 H        1 UNL1     0.0654
     44 H         -8.230371   0.710409   9.070806 H        1 UNL1     0.0623
     45 H         -9.361332   4.83525   6.337266 H        1 UNL1     0.2921
     46 H         -6.981865   -3.892523   5.040493 H        1 UNL1     0.2922
     47 H         0.510728   0.356289   2.263896 H        1 UNL1     0.2126
     48 H         1.198697   -1.878853   -0.30258 H        1 UNL1     0.2101
     49 H         -2.01944   0.941562   -0.904134 H        1 UNL1     0.2100
     50 H         -2.688328   -3.327866   -1.166477 H        1 UNL1     0.2102
@<TRIPOS>BOND
     1     1     2    1
     2     1     6    1
     3     2     3    1
     4     3     4    1
     5     3    29    1
     6     3    33    1
     7     4     5    1
     8     5     6    1
     9     5     7    1
    10     5    35    1
    11     7     8    1
    12     8     9   ar
    13     8    13   ar
    14     9    10   ar
    15     9    36    1
    16    10    11   ar
    17    10    26    1
    18    11    12   ar
    19    11    14    1
    20    12    13   ar
    21    12    17    1
    22    13    37    1
    23    14    15    1
    24    14    25    2
    25    15    16    1
    26    15    38    1
    27    15    39    1
    28    16    17    1
    29    16    18    1
    30    16    40    1
    31    18    19   ar
    32    18    23   ar
    33    19    20   ar
    34    19    41    1
    35    20    21   ar
    36    20    42    1
    37    21    22   ar
    38    21    24    1
    39    22    23   ar
    40    22    43    1
    41    23    44    1
    42    24    45    1
    43    26    46    1
    44    27    47    1
    45    28    48    1
    46    29    49    1
    47    30    50    1
    48     1    31    1
    49     1    27    1
    50     2    32    1
    51     2    28    1
    52     4    34    1
    53     4    30    1
