@<TRIPOS>MOLECULE
*****
 50 53 0 0 0
SMALL
GASTEIGER

@<TRIPOS>ATOM
     1 C         -0.686924   -1.03647   1.795736 C.3        1 UNL1     0.1889
     2 C         -0.549414   -0.914918   0.254225 C.3        1 UNL1     0.1342
     3 C         -1.881335   -0.928713   -0.511451 C.3        1 UNL1     0.1174
     4 C         -2.928545   -1.838471   0.135704 C.3        1 UNL1     0.1456
     5 C         -3.028454   -1.633437   1.658315 C.3        1 UNL1     0.2326
     6 O         -1.754818   -1.847865   2.262251 O.3        1 UNL1     -0.3076
     7 O         -3.626659   -0.378214   2.029646 O.3        1 UNL1     -0.4605
     8 C         -4.34752   -0.375953   3.210274 C.ar        1 UNL1     0.1310
     9 C         -5.279255   -1.346996   3.592693 C.ar        1 UNL1     0.0226
     10 C         -5.947523   -1.265112   4.820136 C.ar        1 UNL1     0.1343
     11 C         -5.682427   -0.221851   5.706236 C.ar        1 UNL1     0.1007
     12 C         -4.784385   0.775869   5.317832 C.ar        1 UNL1     0.1389
     13 C         -4.114539   0.694718   4.082457 C.ar        1 UNL1     0.0229
     14 C         -6.297146   -0.131539   7.050899 C.2        1 UNL1     0.1740
     15 C         -5.733034   0.926585   7.952952 C.3        1 UNL1     0.0520
     16 C         -5.47245   2.177103   7.124544 C.3        1 UNL1     0.1322
     17 O         -4.530005   1.902812   6.064529 O.3        1 UNL1     -0.4828
     18 C         -6.747309   2.892215   6.670593 C.ar        1 UNL1     -0.0067
     19 C         -6.883931   3.273579   5.319997 C.ar        1 UNL1     -0.0516
     20 C         -8.015912   3.97092   4.88148 C.ar        1 UNL1     -0.0198
     21 C         -9.01261   4.298542   5.783192 C.ar        1 UNL1     0.1169
     22 C         -8.922256   3.907518   7.112769 C.ar        1 UNL1     -0.0198
     23 C         -7.798941   3.194051   7.547724 C.ar        1 UNL1     -0.0516
     24 O         -10.082551   5.0112   5.327401 O.3        1 UNL1     -0.5068
     25 O         -7.156701   -0.910202   7.455045 O.2        1 UNL1     -0.2917
     26 O         -6.845159   -2.243915   5.13283 O.3        1 UNL1     -0.5058
     27 O         -0.646245   0.212636   2.467202 O.3        1 UNL1     -0.3648
     28 O         0.230692   -2.026769   -0.223194 O.3        1 UNL1     -0.3841
     29 O         -2.358588   0.40161   -0.722644 O.3        1 UNL1     -0.3863
     30 O         -2.585057   -3.216699   -0.125433 O.3        1 UNL1     -0.3829
     31 H         0.207078   -1.561804   2.149096 H        1 UNL1     0.0937
     32 H         0.0   0.0   -0.0 H        1 UNL1     0.0671
     33 H         -1.686962   -1.331745   -1.515197 H        1 UNL1     0.0649
     34 H         -3.909805   -1.661129   -0.318255 H        1 UNL1     0.0683
     35 H         -3.681467   -2.449265   1.992796 H        1 UNL1     0.1085
     36 H         -5.488158   -2.212135   2.973004 H        1 UNL1     0.0691
     37 H         -3.420975   1.484894   3.80302 H        1 UNL1     0.0691
     38 H         -4.803828   0.535784   8.381178 H        1 UNL1     0.0385
     39 H         -6.43593   1.111774   8.772355 H        1 UNL1     0.0385
     40 H         -4.953117   2.893866   7.774978 H        1 UNL1     0.0789
     41 H         -6.111317   3.036283   4.594457 H        1 UNL1     0.0623
     42 H         -8.10409   4.269849   3.839905 H        1 UNL1     0.0654
     43 H         -9.703966   4.145731   7.824171 H        1 UNL1     0.0654
     44 H         -7.766342   2.895356   8.591067 H        1 UNL1     0.0623
     45 H         -9.761669   5.861653   4.986107 H        1 UNL1     0.2921
     46 H         -6.596657   -2.653178   5.976727 H        1 UNL1     0.2922
     47 H         0.232127   0.609277   2.383549 H        1 UNL1     0.2126
     48 H         1.11362   -1.945184   0.186091 H        1 UNL1     0.2101
     49 H         -1.785766   0.860858   -1.357278 H        1 UNL1     0.2100
     50 H         -2.667441   -3.370518   -1.089417 H        1 UNL1     0.2102
@<TRIPOS>BOND
     1     1     2    1
     2     1     6    1
     3     2     3    1
     4     3     4    1
     5     3    29    1
     6     3    33    1
     7     4     5    1
     8     5     6    1
     9     5     7    1
    10     5    35    1
    11     7     8    1
    12     8     9   ar
    13     8    13   ar
    14     9    10   ar
    15     9    36    1
    16    10    11   ar
    17    10    26    1
    18    11    12   ar
    19    11    14    1
    20    12    13   ar
    21    12    17    1
    22    13    37    1
    23    14    15    1
    24    14    25    2
    25    15    16    1
    26    15    38    1
    27    15    39    1
    28    16    17    1
    29    16    18    1
    30    16    40    1
    31    18    19   ar
    32    18    23   ar
    33    19    20   ar
    34    19    41    1
    35    20    21   ar
    36    20    42    1
    37    21    22   ar
    38    21    24    1
    39    22    23   ar
    40    22    43    1
    41    23    44    1
    42    24    45    1
    43    26    46    1
    44    27    47    1
    45    28    48    1
    46    29    49    1
    47    30    50    1
    48     1    31    1
    49     1    27    1
    50     2    32    1
    51     2    28    1
    52     4    34    1
    53     4    30    1
