@<TRIPOS>MOLECULE
*****
 50 53 0 0 0
SMALL
GASTEIGER

@<TRIPOS>ATOM
     1 C         -0.637994   -1.446294   1.507316 C.3        1 UNL1     0.1889
     2 C         -0.607332   -0.912256   0.049989 C.3        1 UNL1     0.1342
     3 C         -1.989369   -0.628105   -0.55804 C.3        1 UNL1     0.1174
     4 C         -3.060921   -1.612084   -0.081933 C.3        1 UNL1     0.1456
     5 C         -3.026792   -1.830168   1.44176 C.3        1 UNL1     0.2326
     6 O         -1.735063   -2.284671   1.838915 O.3        1 UNL1     -0.3076
     7 O         -3.481851   -0.690851   2.194221 O.3        1 UNL1     -0.4605
     8 C         -3.413657   -0.807089   3.570944 C.ar        1 UNL1     0.1310
     9 C         -2.90388   -1.908475   4.266917 C.ar        1 UNL1     0.0226
     10 C         -2.862034   -1.924235   5.666168 C.ar        1 UNL1     0.1343
     11 C         -3.307464   -0.828035   6.403581 C.ar        1 UNL1     0.1007
     12 C         -3.856527   0.260751   5.721043 C.ar        1 UNL1     0.1389
     13 C         -3.900926   0.27526   4.314185 C.ar        1 UNL1     0.0229
     14 C         -3.209076   -0.756918   7.879866 C.2        1 UNL1     0.1740
     15 C         -3.526294   0.577574   8.488186 C.3        1 UNL1     0.0520
     16 C         -4.719977   1.170868   7.752604 C.3        1 UNL1     0.1322
     17 O         -4.422715   1.34543   6.349667 O.3        1 UNL1     -0.4828
     18 C         -6.03952   0.449084   8.036432 C.ar        1 UNL1     -0.0067
     19 C         -6.545447   0.422872   9.352321 C.ar        1 UNL1     -0.0516
     20 C         -7.724686   -0.268372   9.654874 C.ar        1 UNL1     -0.0198
     21 C         -8.401783   -0.941982   8.654066 C.ar        1 UNL1     0.1169
     22 C         -7.946605   -0.906694   7.342424 C.ar        1 UNL1     -0.0198
     23 C         -6.777381   -0.20015   7.036206 C.ar        1 UNL1     -0.0516
     24 O         -9.52606   -1.635693   8.993429 O.3        1 UNL1     -0.5068
     25 O         -2.818413   -1.689476   8.577147 O.2        1 UNL1     -0.2917
     26 O         -2.353811   -3.02935   6.284243 O.3        1 UNL1     -0.5058
     27 O         -0.436336   -0.436917   2.483676 O.3        1 UNL1     -0.3648
     28 O         0.033038   -1.896454   -0.783069 O.3        1 UNL1     -0.3841
     29 O         -2.361743   0.736553   -0.355114 O.3        1 UNL1     -0.3863
     30 O         -2.861385   -2.883447   -0.737305 O.3        1 UNL1     -0.3829
     31 H         0.230229   -2.105201   1.617358 H        1 UNL1     0.0937
     32 H         0.0   0.0   0.0 H        1 UNL1     0.0671
     33 H         -1.907914   -0.749442   -1.647243 H        1 UNL1     0.0649
     34 H         -4.054189   -1.253415   -0.37378 H        1 UNL1     0.0683
     35 H         -3.722185   -2.662949   1.605421 H        1 UNL1     0.1085
     36 H         -2.490958   -2.768041   3.750428 H        1 UNL1     0.0691
     37 H         -4.334313   1.134403   3.8067 H        1 UNL1     0.0691
     38 H         -2.639683   1.211028   8.377802 H        1 UNL1     0.0385
     39 H         -3.722312   0.446945   9.557901 H        1 UNL1     0.0385
     40 H         -4.859634   2.191892   8.132768 H        1 UNL1     0.0789
     41 H         -6.027562   0.93608   10.157345 H        1 UNL1     0.0623
     42 H         -8.098219   -0.291083   10.675643 H        1 UNL1     0.0654
     43 H         -8.477248   -1.418178   6.54825 H        1 UNL1     0.0654
     44 H         -6.456461   -0.184974   5.999083 H        1 UNL1     0.0623
     45 H         -10.147427   -1.023245   9.41949 H        1 UNL1     0.2921
     46 H         -2.290059   -3.75678   5.645342 H        1 UNL1     0.2922
     47 H         0.336359   0.099007   2.256546 H        1 UNL1     0.2126
     48 H         -0.485486   -1.943624   -1.609289 H        1 UNL1     0.2101
     49 H         -3.301148   0.790482   -0.117621 H        1 UNL1     0.2100
     50 H         -2.432765   -3.488639   -0.097195 H        1 UNL1     0.2102
@<TRIPOS>BOND
     1     1     2    1
     2     1     6    1
     3     2     3    1
     4     3     4    1
     5     3    29    1
     6     3    33    1
     7     4     5    1
     8     5     6    1
     9     5     7    1
    10     5    35    1
    11     7     8    1
    12     8     9   ar
    13     8    13   ar
    14     9    10   ar
    15     9    36    1
    16    10    11   ar
    17    10    26    1
    18    11    12   ar
    19    11    14    1
    20    12    13   ar
    21    12    17    1
    22    13    37    1
    23    14    15    1
    24    14    25    2
    25    15    16    1
    26    15    38    1
    27    15    39    1
    28    16    17    1
    29    16    18    1
    30    16    40    1
    31    18    19   ar
    32    18    23   ar
    33    19    20   ar
    34    19    41    1
    35    20    21   ar
    36    20    42    1
    37    21    22   ar
    38    21    24    1
    39    22    23   ar
    40    22    43    1
    41    23    44    1
    42    24    45    1
    43    26    46    1
    44    27    47    1
    45    28    48    1
    46    29    49    1
    47    30    50    1
    48     1    31    1
    49     1    27    1
    50     2    32    1
    51     2    28    1
    52     4    34    1
    53     4    30    1
