@<TRIPOS>MOLECULE
*****
 50 53 0 0 0
SMALL
GASTEIGER

@<TRIPOS>ATOM
     1 C         -1.349913   0.854543   1.489395 C.3        1 UNL1     0.1889
     2 C         -0.776228   0.773703   0.049155 C.3        1 UNL1     0.1342
     3 C         -0.20245   2.093988   -0.487585 C.3        1 UNL1     0.1174
     4 C         -0.974169   3.320501   0.005601 C.3        1 UNL1     0.1456
     5 C         -1.25363   3.272782   1.518872 C.3        1 UNL1     0.2326
     6 O         -1.968362   2.082655   1.843874 O.3        1 UNL1     -0.3076
     7 O         -0.077121   3.464371   2.325371 O.3        1 UNL1     -0.4605
     8 C         -0.243472   3.300334   3.688804 C.ar        1 UNL1     0.1310
     9 C         -1.214471   3.937192   4.469107 C.ar        1 UNL1     0.0226
     10 C         -1.313667   3.691537   5.843777 C.ar        1 UNL1     0.1343
     11 C         -0.458687   2.784086   6.467782 C.ar        1 UNL1     0.1007
     12 C         0.541419   2.172958   5.706801 C.ar        1 UNL1     0.1389
     13 C         0.642648   2.422133   4.3251 C.ar        1 UNL1     0.0229
     14 C         -0.57315   2.423831   7.900007 C.2        1 UNL1     0.1740
     15 C         0.277349   1.272381   8.349855 C.3        1 UNL1     0.0520
     16 C         1.63809   1.386588   7.676581 C.3        1 UNL1     0.1322
     17 O         1.503772   1.346402   6.238731 O.3        1 UNL1     -0.4828
     18 C         2.490287   2.544361   8.201981 C.ar        1 UNL1     -0.0067
     19 C         2.849207   3.591881   7.329002 C.ar        1 UNL1     -0.0516
     20 C         3.66684   4.641549   7.764475 C.ar        1 UNL1     -0.0198
     21 C         4.136993   4.651375   9.065508 C.ar        1 UNL1     0.1169
     22 C         3.773543   3.651461   9.958209 C.ar        1 UNL1     -0.0198
     23 C         2.940867   2.611362   9.528211 C.ar        1 UNL1     -0.0516
     24 O         4.961831   5.669984   9.442969 O.3        1 UNL1     -0.5068
     25 O         -1.362818   2.962027   8.671535 O.2        1 UNL1     -0.2917
     26 O         -2.281875   4.345821   6.5481 O.3        1 UNL1     -0.5058
     27 O         -0.438551   0.420206   2.486168 O.3        1 UNL1     -0.3648
     28 O         -1.834087   0.372919   -0.841357 O.3        1 UNL1     -0.3841
     29 O         1.199875   2.180685   -0.226621 O.3        1 UNL1     -0.3863
     30 O         -2.233553   3.401681   -0.696576 O.3        1 UNL1     -0.3829
     31 H         -2.170472   0.130552   1.540368 H        1 UNL1     0.0937
     32 H         0.0   0.0   0.0 H        1 UNL1     0.0671
     33 H         -0.295104   2.07935   -1.582538 H        1 UNL1     0.0649
     34 H         -0.416109   4.233312   -0.230503 H        1 UNL1     0.0683
     35 H         -1.939084   4.1127   1.687895 H        1 UNL1     0.1085
     36 H         -1.944336   4.61074   4.033504 H        1 UNL1     0.0691
     37 H         1.430716   1.934588   3.75524 H        1 UNL1     0.0691
     38 H         -0.23274   0.348998   8.055407 H        1 UNL1     0.0385
     39 H         0.353401   1.287664   9.442449 H        1 UNL1     0.0385
     40 H         2.199805   0.476048   7.925405 H        1 UNL1     0.0789
     41 H         2.500586   3.602426   6.30041 H        1 UNL1     0.0623
     42 H         3.946336   5.437287   7.078402 H        1 UNL1     0.0654
     43 H         4.123801   3.657342   10.983487 H        1 UNL1     0.0654
     44 H         2.668396   1.852477   10.255328 H        1 UNL1     0.0623
     45 H         4.579579   6.10047   10.224814 H        1 UNL1     0.2921
     46 H         -1.982385   5.246363   6.749946 H        1 UNL1     0.2922
     47 H         -0.090133   -0.45427   2.263106 H        1 UNL1     0.2126
     48 H         -1.540424   -0.453826   -1.270295 H        1 UNL1     0.2101
     49 H         1.659355   2.532776   -1.005533 H        1 UNL1     0.2100
     50 H         -2.927624   3.63309   -0.045096 H        1 UNL1     0.2102
@<TRIPOS>BOND
     1     1     2    1
     2     1     6    1
     3     2     3    1
     4     3     4    1
     5     3    29    1
     6     3    33    1
     7     4     5    1
     8     5     6    1
     9     5     7    1
    10     5    35    1
    11     7     8    1
    12     8     9   ar
    13     8    13   ar
    14     9    10   ar
    15     9    36    1
    16    10    11   ar
    17    10    26    1
    18    11    12   ar
    19    11    14    1
    20    12    13   ar
    21    12    17    1
    22    13    37    1
    23    14    15    1
    24    14    25    2
    25    15    16    1
    26    15    38    1
    27    15    39    1
    28    16    17    1
    29    16    18    1
    30    16    40    1
    31    18    19   ar
    32    18    23   ar
    33    19    20   ar
    34    19    41    1
    35    20    21   ar
    36    20    42    1
    37    21    22   ar
    38    21    24    1
    39    22    23   ar
    40    22    43    1
    41    23    44    1
    42    24    45    1
    43    26    46    1
    44    27    47    1
    45    28    48    1
    46    29    49    1
    47    30    50    1
    48     1    31    1
    49     1    27    1
    50     2    32    1
    51     2    28    1
    52     4    34    1
    53     4    30    1
