@<TRIPOS>MOLECULE
*****
 50 53 0 0 0
SMALL
GASTEIGER

@<TRIPOS>ATOM
     1 C         -0.007492   -1.11272   1.879522 C.3        1 UNL1     0.1889
     2 C         -0.267796   -1.003614   0.352997 C.3        1 UNL1     0.1342
     3 C         -1.709364   -1.317518   -0.075737 C.3        1 UNL1     0.1174
     4 C         -2.357285   -2.411322   0.776852 C.3        1 UNL1     0.1456
     5 C         -2.134705   -2.193846   2.284674 C.3        1 UNL1     0.2326
     6 O         -0.738563   -2.119313   2.56414 O.3        1 UNL1     -0.3076
     7 O         -2.878926   -1.084297   2.819797 O.3        1 UNL1     -0.4605
     8 C         -3.28344   -1.204641   4.137148 C.ar        1 UNL1     0.1310
     9 C         -3.873198   -2.33999   4.703247 C.ar        1 UNL1     0.0226
     10 C         -4.233412   -2.370333   6.055737 C.ar        1 UNL1     0.1343
     11 C         -3.990563   -1.273436   6.881377 C.ar        1 UNL1     0.1007
     12 C         -3.439777   -0.119228   6.318152 C.ar        1 UNL1     0.1389
     13 C         -3.080099   -0.08803   4.957605 C.ar        1 UNL1     0.0229
     14 C         -4.273965   -1.281453   8.335259 C.2        1 UNL1     0.1740
     15 C         -3.746792   -0.106892   9.106001 C.3        1 UNL1     0.0520
     16 C         -3.957977   1.149938   8.273091 C.3        1 UNL1     0.1322
     17 O         -3.257667   1.053824   7.013171 O.3        1 UNL1     -0.4828
     18 C         -5.424803   1.570344   8.153082 C.ar        1 UNL1     -0.0067
     19 C         -5.954406   1.881583   6.883884 C.ar        1 UNL1     -0.0516
     20 C         -7.27831   2.314978   6.744566 C.ar        1 UNL1     -0.0198
     21 C         -8.078779   2.447983   7.865006 C.ar        1 UNL1     0.1169
     22 C         -7.596024   2.117083   9.124487 C.ar        1 UNL1     -0.0198
     23 C         -6.277806   1.666021   9.261967 C.ar        1 UNL1     -0.0516
     24 O         -9.351133   2.908948   7.694634 O.3        1 UNL1     -0.5068
     25 O         -4.830416   -2.213089   8.9105 O.2        1 UNL1     -0.2917
     26 O         -4.80572   -3.507807   6.545839 O.3        1 UNL1     -0.5058
     27 O         -0.073447   0.133272   2.554756 O.3        1 UNL1     -0.3648
     28 O         0.593558   -1.937328   -0.324464 O.3        1 UNL1     -0.3841
     29 O         -2.492679   -0.123673   -0.133041 O.3        1 UNL1     -0.3863
     30 O         -1.802579   -3.692076   0.405824 O.3        1 UNL1     -0.3829
     31 H         1.034875   -1.428425   1.997339 H        1 UNL1     0.0937
     32 H         0.0   0.0   0.0 H        1 UNL1     0.0671
     33 H         -1.677701   -1.695496   -1.107168 H        1 UNL1     0.0649
     34 H         -3.432804   -2.456601   0.57287 H        1 UNL1     0.0683
     35 H         -2.502651   -3.120493   2.742735 H        1 UNL1     0.1085
     36 H         -4.036931   -3.244515   4.127793 H        1 UNL1     0.0691
     37 H         -2.653971   0.823059   4.543085 H        1 UNL1     0.0691
     38 H         -2.681926   -0.283467   9.291499 H        1 UNL1     0.0385
     39 H         -4.258206   -0.053453   10.07315 H        1 UNL1     0.0385
     40 H         -3.461378   1.975325   8.800959 H        1 UNL1     0.0789
     41 H         -5.34369   1.794126   5.99 H        1 UNL1     0.0623
     42 H         -7.671447   2.563322   5.761825 H        1 UNL1     0.0654
     43 H         -8.218913   2.203183   10.006818 H        1 UNL1     0.0654
     44 H         -5.937024   1.406284   10.259589 H        1 UNL1     0.0623
     45 H         -9.305782   3.800358   7.312469 H        1 UNL1     0.2921
     46 H         -4.28422   -3.835161   7.295698 H        1 UNL1     0.2922
     47 H         0.540984   0.764078   2.154234 H        1 UNL1     0.2126
     48 H         1.510611   -1.660924   -0.133812 H        1 UNL1     0.2101
     49 H         -2.198461   0.428799   -0.874663 H        1 UNL1     0.2100
     50 H         -2.076548   -3.883972   -0.514953 H        1 UNL1     0.2102
@<TRIPOS>BOND
     1     1     2    1
     2     1     6    1
     3     2     3    1
     4     3     4    1
     5     3    29    1
     6     3    33    1
     7     4     5    1
     8     5     6    1
     9     5     7    1
    10     5    35    1
    11     7     8    1
    12     8     9   ar
    13     8    13   ar
    14     9    10   ar
    15     9    36    1
    16    10    11   ar
    17    10    26    1
    18    11    12   ar
    19    11    14    1
    20    12    13   ar
    21    12    17    1
    22    13    37    1
    23    14    15    1
    24    14    25    2
    25    15    16    1
    26    15    38    1
    27    15    39    1
    28    16    17    1
    29    16    18    1
    30    16    40    1
    31    18    19   ar
    32    18    23   ar
    33    19    20   ar
    34    19    41    1
    35    20    21   ar
    36    20    42    1
    37    21    22   ar
    38    21    24    1
    39    22    23   ar
    40    22    43    1
    41    23    44    1
    42    24    45    1
    43    26    46    1
    44    27    47    1
    45    28    48    1
    46    29    49    1
    47    30    50    1
    48     1    31    1
    49     1    27    1
    50     2    32    1
    51     2    28    1
    52     4    34    1
    53     4    30    1
