@<TRIPOS>MOLECULE
*****
 50 53 0 0 0
SMALL
GASTEIGER

@<TRIPOS>ATOM
     1 C         0.925914   0.044655   1.97775 C.3        1 UNL1     0.1889
     2 C         -0.318296   0.022211   1.049646 C.3        1 UNL1     0.1342
     3 C         -1.291548   1.193408   1.253473 C.3        1 UNL1     0.1174
     4 C         -1.382821   1.641903   2.714171 C.3        1 UNL1     0.1456
     5 C         0.000577   1.79265   3.372842 C.3        1 UNL1     0.2326
     6 O         0.718205   0.563909   3.28298 O.3        1 UNL1     -0.3076
     7 O         0.747997   2.92148   2.88455 O.3        1 UNL1     -0.4605
     8 C         1.60265   3.521056   3.792076 C.ar        1 UNL1     0.1310
     9 C         1.281757   3.846696   5.114303 C.ar        1 UNL1     0.0226
     10 C         2.224724   4.438359   5.963215 C.ar        1 UNL1     0.1343
     11 C         3.520046   4.697196   5.517137 C.ar        1 UNL1     0.1007
     12 C         3.840075   4.414139   4.186632 C.ar        1 UNL1     0.1389
     13 C         2.890956   3.821659   3.332483 C.ar        1 UNL1     0.0229
     14 C         4.580224   5.243429   6.395662 C.2        1 UNL1     0.1740
     15 C         5.964499   5.248709   5.816609 C.3        1 UNL1     0.0520
     16 C         5.872727   5.655884   4.352456 C.3        1 UNL1     0.1322
     17 O         5.050353   4.726838   3.612425 O.3        1 UNL1     -0.4828
     18 C         5.511164   7.12847   4.143921 C.ar        1 UNL1     -0.0067
     19 C         4.484362   7.468057   3.239172 C.ar        1 UNL1     -0.0516
     20 C         4.160706   8.807055   2.989581 C.ar        1 UNL1     -0.0198
     21 C         4.859819   9.813596   3.631409 C.ar        1 UNL1     0.1169
     22 C         5.853582   9.510113   4.552914 C.ar        1 UNL1     -0.0198
     23 C         6.164946   8.170854   4.816528 C.ar        1 UNL1     -0.0516
     24 O         4.54225   11.106473   3.334726 O.3        1 UNL1     -0.5068
     25 O         4.38128   5.60004   7.553995 O.2        1 UNL1     -0.2917
     26 O         1.847981   4.73223   7.241217 O.3        1 UNL1     -0.5058
     27 O         2.0765   0.607067   1.367315 O.3        1 UNL1     -0.3648
     28 O         -1.050993   -1.19188   1.298331 O.3        1 UNL1     -0.3841
     29 O         -0.98533   2.268046   0.362678 O.3        1 UNL1     -0.3863
     30 O         -2.149001   0.671633   3.460652 O.3        1 UNL1     -0.3829
     31 H         1.200189   -1.000406   2.158578 H        1 UNL1     0.0937
     32 H         0.0   0.0   -0.0 H        1 UNL1     0.0671
     33 H         -2.294431   0.850468   0.963066 H        1 UNL1     0.0649
     34 H         -1.920467   2.594266   2.780073 H        1 UNL1     0.0683
     35 H         -0.227708   1.951806   4.434178 H        1 UNL1     0.1085
     36 H         0.309434   3.619662   5.537581 H        1 UNL1     0.0691
     37 H         3.164675   3.612171   2.300647 H        1 UNL1     0.0691
     38 H         6.370793   4.236946   5.920465 H        1 UNL1     0.0385
     39 H         6.59398   5.931384   6.397546 H        1 UNL1     0.0385
     40 H         6.875841   5.538967   3.920469 H        1 UNL1     0.0789
     41 H         3.926967   6.696642   2.715836 H        1 UNL1     0.0623
     42 H         3.37492   9.056333   2.280771 H        1 UNL1     0.0654
     43 H         6.397101   10.290256   5.072408 H        1 UNL1     0.0654
     44 H         6.939702   7.970074   5.550207 H        1 UNL1     0.0623
     45 H         4.697019   11.250587   2.387101 H        1 UNL1     0.2921
     46 H         2.44788   4.292835   7.864486 H        1 UNL1     0.2922
     47 H         2.282258   0.139218   0.545949 H        1 UNL1     0.2126
     48 H         -0.45215   -1.930523   1.075787 H        1 UNL1     0.2101
     49 H         -1.194725   2.010608   -0.549284 H        1 UNL1     0.2100
     50 H         -3.067788   0.687141   3.121092 H        1 UNL1     0.2102
@<TRIPOS>BOND
     1     1     2    1
     2     1     6    1
     3     2     3    1
     4     3     4    1
     5     3    29    1
     6     3    33    1
     7     4     5    1
     8     5     6    1
     9     5     7    1
    10     5    35    1
    11     7     8    1
    12     8     9   ar
    13     8    13   ar
    14     9    10   ar
    15     9    36    1
    16    10    11   ar
    17    10    26    1
    18    11    12   ar
    19    11    14    1
    20    12    13   ar
    21    12    17    1
    22    13    37    1
    23    14    15    1
    24    14    25    2
    25    15    16    1
    26    15    38    1
    27    15    39    1
    28    16    17    1
    29    16    18    1
    30    16    40    1
    31    18    19   ar
    32    18    23   ar
    33    19    20   ar
    34    19    41    1
    35    20    21   ar
    36    20    42    1
    37    21    22   ar
    38    21    24    1
    39    22    23   ar
    40    22    43    1
    41    23    44    1
    42    24    45    1
    43    26    46    1
    44    27    47    1
    45    28    48    1
    46    29    49    1
    47    30    50    1
    48     1    31    1
    49     1    27    1
    50     2    32    1
    51     2    28    1
    52     4    34    1
    53     4    30    1
