@<TRIPOS>MOLECULE
*****
 50 53 0 0 0
SMALL
GASTEIGER

@<TRIPOS>ATOM
     1 C         -0.57008   -0.532474   2.040168 C.3        1 UNL1     0.1889
     2 C         -0.909068   -0.022283   0.613727 C.3        1 UNL1     0.1342
     3 C         -1.577719   1.360248   0.569246 C.3        1 UNL1     0.1174
     4 C         -2.511363   1.606456   1.75702 C.3        1 UNL1     0.1456
     5 C         -1.874129   1.20884   3.100968 C.3        1 UNL1     0.2326
     6 O         -1.479482   -0.16078   3.065462 O.3        1 UNL1     -0.3076
     7 O         -0.816668   2.091805   3.517467 O.3        1 UNL1     -0.4605
     8 C         -0.037723   2.624203   2.505872 C.ar        1 UNL1     0.1310
     9 C         -0.443148   3.618221   1.608732 C.ar        1 UNL1     0.0226
     10 C         0.427424   4.105533   0.626626 C.ar        1 UNL1     0.1343
     11 C         1.733616   3.627056   0.533007 C.ar        1 UNL1     0.1007
     12 C         2.136908   2.60532   1.396832 C.ar        1 UNL1     0.1389
     13 C         1.260517   2.113632   2.382536 C.ar        1 UNL1     0.0229
     14 C         2.72135   4.165474   -0.430654 C.2        1 UNL1     0.1740
     15 C         4.133795   3.694605   -0.244025 C.3        1 UNL1     0.0520
     16 C         4.105611   2.212722   0.104093 C.3        1 UNL1     0.1322
     17 O         3.363061   1.986222   1.322447 O.3        1 UNL1     -0.4828
     18 C         3.696703   1.312903   -1.064601 C.ar        1 UNL1     -0.0067
     19 C         2.511304   1.595099   -1.774114 C.ar        1 UNL1     -0.0516
     20 C         2.083734   0.765192   -2.817378 C.ar        1 UNL1     -0.0198
     21 C         2.82716   -0.351523   -3.155152 C.ar        1 UNL1     0.1169
     22 C         4.016396   -0.637084   -2.497115 C.ar        1 UNL1     -0.0198
     23 C         4.453805   0.202934   -1.466048 C.ar        1 UNL1     -0.0516
     24 O         2.359701   -1.157388   -4.151377 O.3        1 UNL1     -0.5068
     25 O         2.445277   5.004389   -1.284171 O.2        1 UNL1     -0.2917
     26 O         -0.030026   5.074426   -0.218105 O.3        1 UNL1     -0.5058
     27 O         0.775341   -0.293033   2.421345 O.3        1 UNL1     -0.3648
     28 O         -1.815471   -0.956499   -0.001399 O.3        1 UNL1     -0.3841
     29 O         -0.600852   2.391058   0.4102 O.3        1 UNL1     -0.3863
     30 O         -3.722888   0.842074   1.573667 O.3        1 UNL1     -0.3829
     31 H         -0.651346   -1.624502   2.009345 H        1 UNL1     0.0937
     32 H         0.0   0.0   0.0 H        1 UNL1     0.0671
     33 H         -2.197987   1.403766   -0.336896 H        1 UNL1     0.0649
     34 H         -2.800933   2.662531   1.792461 H        1 UNL1     0.0683
     35 H         -2.700976   1.284027   3.81829 H        1 UNL1     0.1085
     36 H         -1.427128   4.070641   1.665464 H        1 UNL1     0.0691
     37 H         1.598344   1.317167   3.042089 H        1 UNL1     0.0691
     38 H         4.574403   4.282768   0.568043 H        1 UNL1     0.0385
     39 H         4.702536   3.894336   -1.158585 H        1 UNL1     0.0385
     40 H         5.134695   1.918596   0.351064 H        1 UNL1     0.0789
     41 H         1.905276   2.4605   -1.522196 H        1 UNL1     0.0623
     42 H         1.161655   0.986793   -3.349051 H        1 UNL1     0.0654
     43 H         4.614112   -1.500599   -2.763552 H        1 UNL1     0.0654
     44 H         5.39296   -0.044416   -0.98061 H        1 UNL1     0.0623
     45 H         2.686656   -0.817136   -4.999932 H        1 UNL1     0.2921
     46 H         0.495313   5.881489   -0.099446 H        1 UNL1     0.2922
     47 H         0.938417   0.657696   2.494695 H        1 UNL1     0.2126
     48 H         -2.273119   -1.421832   0.725069 H        1 UNL1     0.2101
     49 H         0.281069   1.99784   0.313304 H        1 UNL1     0.2100
     50 H         -3.576159   0.217429   0.833395 H        1 UNL1     0.2102
@<TRIPOS>BOND
     1     1     2    1
     2     1     6    1
     3     2     3    1
     4     3     4    1
     5     3    29    1
     6     3    33    1
     7     4     5    1
     8     5     6    1
     9     5     7    1
    10     5    35    1
    11     7     8    1
    12     8     9   ar
    13     8    13   ar
    14     9    10   ar
    15     9    36    1
    16    10    11   ar
    17    10    26    1
    18    11    12   ar
    19    11    14    1
    20    12    13   ar
    21    12    17    1
    22    13    37    1
    23    14    15    1
    24    14    25    2
    25    15    16    1
    26    15    38    1
    27    15    39    1
    28    16    17    1
    29    16    18    1
    30    16    40    1
    31    18    19   ar
    32    18    23   ar
    33    19    20   ar
    34    19    41    1
    35    20    21   ar
    36    20    42    1
    37    21    22   ar
    38    21    24    1
    39    22    23   ar
    40    22    43    1
    41    23    44    1
    42    24    45    1
    43    26    46    1
    44    27    47    1
    45    28    48    1
    46    29    49    1
    47    30    50    1
    48     1    31    1
    49     1    27    1
    50     2    32    1
    51     2    28    1
    52     4    34    1
    53     4    30    1
