@<TRIPOS>MOLECULE
*****
 50 53 0 0 0
SMALL
GASTEIGER

@<TRIPOS>ATOM
     1 C         -0.508805   -1.191797   1.758278 C.3        1 UNL1     0.1889
     2 C         -0.50672   -0.946575   0.225372 C.3        1 UNL1     0.1342
     3 C         -1.898922   -0.936768   -0.424354 C.3        1 UNL1     0.1174
     4 C         -2.867849   -1.922414   0.233521 C.3        1 UNL1     0.1456
     5 C         -2.840783   -1.83967   1.770656 C.3        1 UNL1     0.2326
     6 O         -1.515863   -2.065877   2.246349 O.3        1 UNL1     -0.3076
     7 O         -3.430432   -0.634002   2.290272 O.3        1 UNL1     -0.4605
     8 C         -4.047119   -0.743525   3.523653 C.ar        1 UNL1     0.1310
     9 C         -4.92386   -1.7655   3.903379 C.ar        1 UNL1     0.0226
     10 C         -5.485655   -1.798005   5.185265 C.ar        1 UNL1     0.1343
     11 C         -5.165374   -0.821366   6.127304 C.ar        1 UNL1     0.1007
     12 C         -4.323219   0.226794   5.746623 C.ar        1 UNL1     0.1389
     13 C         -3.760546   0.260697   4.456785 C.ar        1 UNL1     0.0229
     14 C         -5.66392   -0.85333   7.521788 C.2        1 UNL1     0.1740
     15 C         -5.044696   0.144606   8.455723 C.3        1 UNL1     0.0520
     16 C         -4.880147   1.462888   7.712075 C.3        1 UNL1     0.1322
     17 O         -4.027184   1.297544   6.557872 O.3        1 UNL1     -0.4828
     18 C         -6.202702   2.178327   7.426211 C.ar        1 UNL1     -0.0067
     19 C         -6.462092   2.661356   6.127129 C.ar        1 UNL1     -0.0516
     20 C         -7.640658   3.361568   5.843141 C.ar        1 UNL1     -0.0198
     21 C         -8.562279   3.591139   6.848993 C.ar        1 UNL1     0.1169
     22 C         -8.350599   3.098943   8.13031 C.ar        1 UNL1     -0.0198
     23 C         -7.180664   2.382718   8.410186 C.ar        1 UNL1     -0.0516
     24 O         -9.680822   4.309583   6.543869 O.3        1 UNL1     -0.5068
     25 O         -6.470565   -1.683434   7.932562 O.2        1 UNL1     -0.2917
     26 O         -6.334271   -2.821331   5.492246 O.3        1 UNL1     -0.5058
     27 O         -0.43616   0.001717   2.521843 O.3        1 UNL1     -0.3648
     28 O         0.252075   -1.996132   -0.403411 O.3        1 UNL1     -0.3841
     29 O         -2.41966   0.39251   -0.487469 O.3        1 UNL1     -0.3863
     30 O         -2.519943   -3.266196   -0.165102 O.3        1 UNL1     -0.3829
     31 H         0.422801   -1.718607   1.992073 H        1 UNL1     0.0937
     32 H         0.0   0.0   0.0 H        1 UNL1     0.0671
     33 H         -1.783277   -1.254771   -1.469925 H        1 UNL1     0.0649
     34 H         -3.887895   -1.736924   -0.120739 H        1 UNL1     0.0683
     35 H         -3.445831   -2.696578   2.09238 H        1 UNL1     0.1085
     36 H         -5.168679   -2.584189   3.235597 H        1 UNL1     0.0691
     37 H         -3.108755   1.08814   4.184758 H        1 UNL1     0.0691
     38 H         -4.074851   -0.254562   8.771307 H        1 UNL1     0.0385
     39 H         -5.678009   0.246333   9.343611 H        1 UNL1     0.0385
     40 H         -4.320631   2.139326   8.372297 H        1 UNL1     0.0789
     41 H         -5.750274   2.502103   5.32239 H        1 UNL1     0.0623
     42 H         -7.823673   3.739328   4.840238 H        1 UNL1     0.0654
     43 H         -9.07271   3.259989   8.921846 H        1 UNL1     0.0654
     44 H         -7.052865   2.003613   9.419538 H        1 UNL1     0.0623
     45 H         -9.406731   5.192326   6.246621 H        1 UNL1     0.2921
     46 H         -6.00643   -3.289304   6.276423 H        1 UNL1     0.2922
     47 H         0.341314   0.516821   2.26482 H        1 UNL1     0.2126
     48 H         1.16504   -1.922768   -0.064522 H        1 UNL1     0.2101
     49 H         -1.912978   0.915311   -1.129144 H        1 UNL1     0.2100
     50 H         -2.681655   -3.346471   -1.127972 H        1 UNL1     0.2102
@<TRIPOS>BOND
     1     1     2    1
     2     1     6    1
     3     2     3    1
     4     3     4    1
     5     3    29    1
     6     3    33    1
     7     4     5    1
     8     5     6    1
     9     5     7    1
    10     5    35    1
    11     7     8    1
    12     8     9   ar
    13     8    13   ar
    14     9    10   ar
    15     9    36    1
    16    10    11   ar
    17    10    26    1
    18    11    12   ar
    19    11    14    1
    20    12    13   ar
    21    12    17    1
    22    13    37    1
    23    14    15    1
    24    14    25    2
    25    15    16    1
    26    15    38    1
    27    15    39    1
    28    16    17    1
    29    16    18    1
    30    16    40    1
    31    18    19   ar
    32    18    23   ar
    33    19    20   ar
    34    19    41    1
    35    20    21   ar
    36    20    42    1
    37    21    22   ar
    38    21    24    1
    39    22    23   ar
    40    22    43    1
    41    23    44    1
    42    24    45    1
    43    26    46    1
    44    27    47    1
    45    28    48    1
    46    29    49    1
    47    30    50    1
    48     1    31    1
    49     1    27    1
    50     2    32    1
    51     2    28    1
    52     4    34    1
    53     4    30    1
