@<TRIPOS>MOLECULE
*****
 50 53 0 0 0
SMALL
GASTEIGER

@<TRIPOS>ATOM
     1 C         -0.338547   -1.334437   1.69572 C.3        1 UNL1     0.1889
     2 C         -0.461937   -0.976741   0.190141 C.3        1 UNL1     0.1342
     3 C         -1.900072   -0.964636   -0.350307 C.3        1 UNL1     0.1174
     4 C         -2.788071   -2.027418   0.301667 C.3        1 UNL1     0.1456
     5 C         -2.64417   -2.057578   1.834229 C.3        1 UNL1     0.2326
     6 O         -1.280728   -2.274728   2.190233 O.3        1 UNL1     -0.3076
     7 O         -3.224153   -0.913563   2.487048 O.3        1 UNL1     -0.4605
     8 C         -3.74018   -1.134038   3.751419 C.ar        1 UNL1     0.1310
     9 C         -4.556883   -2.209466   4.117138 C.ar        1 UNL1     0.0226
     10 C         -5.016526   -2.354956   5.431468 C.ar        1 UNL1     0.1343
     11 C         -4.65071   -1.440579   6.41835 C.ar        1 UNL1     0.1007
     12 C         -3.869257   -0.340116   6.056277 C.ar        1 UNL1     0.1389
     13 C         -3.409394   -0.192616   4.734082 C.ar        1 UNL1     0.0229
     14 C         -5.038603   -1.591773   7.83991 C.2        1 UNL1     0.1740
     15 C         -4.376057   -0.645768   8.797854 C.3        1 UNL1     0.0520
     16 C         -4.305367   0.72852   8.146475 C.3        1 UNL1     0.1322
     17 O         -3.54029   0.676927   6.922112 O.3        1 UNL1     -0.4828
     18 C         -5.664967   1.419361   8.016283 C.ar        1 UNL1     -0.0067
     19 C         -6.037254   1.988243   6.780974 C.ar        1 UNL1     -0.0516
     20 C         -7.252793   2.66849   6.64065 C.ar        1 UNL1     -0.0198
     21 C         -8.099535   2.792804   7.727573 C.ar        1 UNL1     0.1169
     22 C         -7.775926   2.214532   8.948113 C.ar        1 UNL1     -0.0198
     23 C         -6.568874   1.518345   9.083779 C.ar        1 UNL1     -0.0516
     24 O         -9.257386   3.494753   7.563105 O.3        1 UNL1     -0.5068
     25 O         -5.788229   -2.475951   8.245834 O.2        1 UNL1     -0.2917
     26 O         -5.810803   -3.425436   5.722642 O.3        1 UNL1     -0.5058
     27 O         -0.239232   -0.198834   2.540308 O.3        1 UNL1     -0.3648
     28 O         0.273936   -1.951546   -0.572061 O.3        1 UNL1     -0.3841
     29 O         -2.459896   0.34788   -0.272645 O.3        1 UNL1     -0.3863
     30 O         -2.435899   -3.325958   -0.223174 O.3        1 UNL1     -0.3829
     31 H         0.622286   -1.846241   1.817933 H        1 UNL1     0.0937
     32 H         0.0   0.0   0.0 H        1 UNL1     0.0671
     33 H         -1.857274   -1.20059   -1.422788 H        1 UNL1     0.0649
     34 H         -3.837153   -1.849822   0.04035 H        1 UNL1     0.0683
     35 H         -3.199058   -2.955284   2.134399 H        1 UNL1     0.1085
     36 H         -4.830503   -2.984189   3.409284 H        1 UNL1     0.0691
     37 H         -2.803271   0.673585   4.477563 H        1 UNL1     0.0691
     38 H         -3.374226   -1.035133   9.008226 H        1 UNL1     0.0385
     39 H         -4.941151   -0.630713   9.736055 H        1 UNL1     0.0385
     40 H         -3.714851   1.372335   8.812293 H        1 UNL1     0.0789
     41 H         -5.385918   1.912285   5.915155 H        1 UNL1     0.0623
     42 H         -7.523156   3.113079   5.686052 H        1 UNL1     0.0654
     43 H         -8.438592   2.292915   9.801717 H        1 UNL1     0.0654
     44 H         -6.353004   1.070127   10.048842 H        1 UNL1     0.0623
     45 H         -9.03126   4.404071   7.308695 H        1 UNL1     0.2921
     46 H         -5.409923   -3.939814   6.441059 H        1 UNL1     0.2922
     47 H         0.504294   0.356941   2.268017 H        1 UNL1     0.2126
     48 H         1.20532   -1.885235   -0.285951 H        1 UNL1     0.2101
     49 H         -2.018809   0.932975   -0.908962 H        1 UNL1     0.2100
     50 H         -2.664317   -3.338224   -1.175743 H        1 UNL1     0.2102
@<TRIPOS>BOND
     1     1     2    1
     2     1     6    1
     3     2     3    1
     4     3     4    1
     5     3    29    1
     6     3    33    1
     7     4     5    1
     8     5     6    1
     9     5     7    1
    10     5    35    1
    11     7     8    1
    12     8     9   ar
    13     8    13   ar
    14     9    10   ar
    15     9    36    1
    16    10    11   ar
    17    10    26    1
    18    11    12   ar
    19    11    14    1
    20    12    13   ar
    21    12    17    1
    22    13    37    1
    23    14    15    1
    24    14    25    2
    25    15    16    1
    26    15    38    1
    27    15    39    1
    28    16    17    1
    29    16    18    1
    30    16    40    1
    31    18    19   ar
    32    18    23   ar
    33    19    20   ar
    34    19    41    1
    35    20    21   ar
    36    20    42    1
    37    21    22   ar
    38    21    24    1
    39    22    23   ar
    40    22    43    1
    41    23    44    1
    42    24    45    1
    43    26    46    1
    44    27    47    1
    45    28    48    1
    46    29    49    1
    47    30    50    1
    48     1    31    1
    49     1    27    1
    50     2    32    1
    51     2    28    1
    52     4    34    1
    53     4    30    1
