@<TRIPOS>MOLECULE
*****
 50 53 0 0 0
SMALL
GASTEIGER

@<TRIPOS>ATOM
     1 C         -0.336446   -1.330932   1.698891 C.3        1 UNL1     0.1889
     2 C         -0.464657   -0.974821   0.193339 C.3        1 UNL1     0.1342
     3 C         -1.904919   -0.958285   -0.341298 C.3        1 UNL1     0.1174
     4 C         -2.794068   -2.016997   0.315712 C.3        1 UNL1     0.1456
     5 C         -2.644064   -2.04561   1.847718 C.3        1 UNL1     0.2326
     6 O         -1.279976   -2.267171   2.198493 O.3        1 UNL1     -0.3076
     7 O         -3.217295   -0.898646   2.501323 O.3        1 UNL1     -0.4605
     8 C         -3.728977   -1.115566   3.768073 C.ar        1 UNL1     0.1310
     9 C         -4.548038   -2.187565   4.138558 C.ar        1 UNL1     0.0226
     10 C         -5.002866   -2.329637   5.454935 C.ar        1 UNL1     0.1343
     11 C         -4.62978   -1.415252   6.439083 C.ar        1 UNL1     0.1007
     12 C         -3.845865   -0.318087   6.072353 C.ar        1 UNL1     0.1389
     13 C         -3.390841   -0.174016   4.748107 C.ar        1 UNL1     0.0229
     14 C         -5.012445   -1.56314   7.862406 C.2        1 UNL1     0.1740
     15 C         -4.342637   -0.618229   8.816372 C.3        1 UNL1     0.0520
     16 C         -4.269667   0.754918   8.162844 C.3        1 UNL1     0.1322
     17 O         -3.50975   0.698935   6.935464 O.3        1 UNL1     -0.4828
     18 C         -5.627301   1.450456   8.037219 C.ar        1 UNL1     -0.0067
     19 C         -6.002554   2.019007   6.802655 C.ar        1 UNL1     -0.0516
     20 C         -7.216208   2.703421   6.666329 C.ar        1 UNL1     -0.0198
     21 C         -8.058086   2.832233   7.756502 C.ar        1 UNL1     0.1169
     22 C         -7.731603   2.254446   8.976507 C.ar        1 UNL1     -0.0198
     23 C         -6.526512   1.554117   9.108231 C.ar        1 UNL1     -0.0516
     24 O         -9.214072   3.538108   7.595769 O.3        1 UNL1     -0.5068
     25 O         -5.763581   -2.444077   8.272564 O.2        1 UNL1     -0.2917
     26 O         -5.799785   -3.396869   5.750778 O.3        1 UNL1     -0.5058
     27 O         -0.229641   -0.194556   2.541524 O.3        1 UNL1     -0.3648
     28 O         0.264623   -1.953284   -0.570511 O.3        1 UNL1     -0.3841
     29 O         -2.45972   0.356334   -0.263155 O.3        1 UNL1     -0.3863
     30 O         -2.44868   -3.317497   -0.208785 O.3        1 UNL1     -0.3829
     31 H         0.623036   -1.846013   1.817908 H        1 UNL1     0.0937
     32 H         0.0   0.0   0.0 H        1 UNL1     0.0671
     33 H         -1.867315   -1.195834   -1.413621 H        1 UNL1     0.0649
     34 H         -3.843558   -1.835991   0.058403 H        1 UNL1     0.0683
     35 H         -3.200942   -2.940916   2.151353 H        1 UNL1     0.1085
     36 H         -4.827297   -2.962253   3.432872 H        1 UNL1     0.0691
     37 H         -2.782664   0.68966   4.487957 H        1 UNL1     0.0691
     38 H         -3.341363   -1.010902   9.023215 H        1 UNL1     0.0385
     39 H         -4.903865   -0.599885   9.756832 H        1 UNL1     0.0385
     40 H         -3.674155   1.397507   8.825389 H        1 UNL1     0.0789
     41 H         -5.35501   1.939549   5.93431 H        1 UNL1     0.0623
     42 H         -7.488845   3.147692   5.712231 H        1 UNL1     0.0654
     43 H         -8.390518   2.336354   9.83268 H        1 UNL1     0.0654
     44 H         -6.308339   1.106427   10.073021 H        1 UNL1     0.0623
     45 H         -8.985575   4.447751   7.344662 H        1 UNL1     0.2921
     46 H         -5.398531   -3.910937   6.469208 H        1 UNL1     0.2922
     47 H         0.513071   0.3596   2.263769 H        1 UNL1     0.2126
     48 H         1.200169   -1.878232   -0.300597 H        1 UNL1     0.2101
     49 H         -2.019123   0.938987   -0.902048 H        1 UNL1     0.2100
     50 H         -2.681001   -3.330225   -1.160403 H        1 UNL1     0.2102
@<TRIPOS>BOND
     1     1     2    1
     2     1     6    1
     3     2     3    1
     4     3     4    1
     5     3    29    1
     6     3    33    1
     7     4     5    1
     8     5     6    1
     9     5     7    1
    10     5    35    1
    11     7     8    1
    12     8     9   ar
    13     8    13   ar
    14     9    10   ar
    15     9    36    1
    16    10    11   ar
    17    10    26    1
    18    11    12   ar
    19    11    14    1
    20    12    13   ar
    21    12    17    1
    22    13    37    1
    23    14    15    1
    24    14    25    2
    25    15    16    1
    26    15    38    1
    27    15    39    1
    28    16    17    1
    29    16    18    1
    30    16    40    1
    31    18    19   ar
    32    18    23   ar
    33    19    20   ar
    34    19    41    1
    35    20    21   ar
    36    20    42    1
    37    21    22   ar
    38    21    24    1
    39    22    23   ar
    40    22    43    1
    41    23    44    1
    42    24    45    1
    43    26    46    1
    44    27    47    1
    45    28    48    1
    46    29    49    1
    47    30    50    1
    48     1    31    1
    49     1    27    1
    50     2    32    1
    51     2    28    1
    52     4    34    1
    53     4    30    1
