@<TRIPOS>MOLECULE
*****
 50 53 0 0 0
SMALL
GASTEIGER

@<TRIPOS>ATOM
     1 C         -1.215505   -0.324293   1.785549 C.3        1 UNL1     0.1889
     2 C         0.114564   -0.448366   0.994688 C.3        1 UNL1     0.1342
     3 C         0.63682   -1.884919   0.839674 C.3        1 UNL1     0.1174
     4 C         0.339609   -2.759429   2.060336 C.3        1 UNL1     0.1456
     5 C         -1.11449   -2.61965   2.546567 C.3        1 UNL1     0.2326
     6 O         -1.398808   -1.254279   2.842867 O.3        1 UNL1     -0.3076
     7 O         -2.075934   -3.218   1.658354 O.3        1 UNL1     -0.4605
     8 C         -1.827134   -4.527668   1.289036 C.ar        1 UNL1     0.1310
     9 C         -1.117097   -4.928048   0.152003 C.ar        1 UNL1     0.0226
     10 C         -0.902653   -6.282967   -0.127484 C.ar        1 UNL1     0.1343
     11 C         -1.373042   -7.270721   0.736758 C.ar        1 UNL1     0.1007
     12 C         -2.118784   -6.88466   1.853723 C.ar        1 UNL1     0.1389
     13 C         -2.33654   -5.522328   2.13312 C.ar        1 UNL1     0.0229
     14 C         -1.103018   -8.713044   0.534409 C.2        1 UNL1     0.1740
     15 C         -1.489166   -9.611777   1.672266 C.3        1 UNL1     0.0520
     16 C         -2.822291   -9.134801   2.231936 C.3        1 UNL1     0.1322
     17 O         -2.720326   -7.775927   2.71166 O.3        1 UNL1     -0.4828
     18 C         -4.008991   -9.391113   1.299856 C.ar        1 UNL1     -0.0067
     19 C         -3.802824   -10.088793   0.091986 C.ar        1 UNL1     -0.0516
     20 C         -4.856848   -10.298775   -0.805178 C.ar        1 UNL1     -0.0198
     21 C         -6.117244   -9.810751   -0.510115 C.ar        1 UNL1     0.1169
     22 C         -6.358942   -9.149024   0.686772 C.ar        1 UNL1     -0.0198
     23 C         -5.309198   -8.955015   1.59256 C.ar        1 UNL1     -0.0516
     24 O         -7.110547   -10.00141   -1.425209 O.3        1 UNL1     -0.5068
     25 O         -0.528999   -9.161194   -0.454605 O.2        1 UNL1     -0.2917
     26 O         -0.203279   -6.606889   -1.253333 O.3        1 UNL1     -0.5058
     27 O         -2.362238   -0.243866   0.954092 O.3        1 UNL1     -0.3648
     28 O         1.12855   0.303741   1.686696 O.3        1 UNL1     -0.3841
     29 O         0.173459   -2.463838   -0.381916 O.3        1 UNL1     -0.3863
     30 O         1.22689   -2.387016   3.137245 O.3        1 UNL1     -0.3829
     31 H         -1.185615   0.643454   2.298045 H        1 UNL1     0.0937
     32 H         0.0   0.0   -0.0 H        1 UNL1     0.0671
     33 H         1.73039   -1.835546   0.742785 H        1 UNL1     0.0649
     34 H         0.543199   -3.810184   1.826102 H        1 UNL1     0.0683
     35 H         -1.127912   -3.162423   3.500033 H        1 UNL1     0.1085
     36 H         -0.677913   -4.207404   -0.529107 H        1 UNL1     0.0691
     37 H         -2.921312   -5.247978   3.008487 H        1 UNL1     0.0691
     38 H         -0.69842   -9.54841   2.427403 H        1 UNL1     0.0385
     39 H         -1.536968   -10.64541   1.312966 H        1 UNL1     0.0385
     40 H         -3.026548   -9.729342   3.132669 H        1 UNL1     0.0789
     41 H         -2.820815   -10.473839   -0.166951 H        1 UNL1     0.0623
     42 H         -4.682555   -10.827883   -1.738815 H        1 UNL1     0.0654
     43 H         -7.345458   -8.775883   0.934689 H        1 UNL1     0.0654
     44 H         -5.536246   -8.44315   2.522769 H        1 UNL1     0.0623
     45 H         -6.865354   -9.541377   -2.244335 H        1 UNL1     0.2921
     46 H         0.351436   -7.383268   -1.077435 H        1 UNL1     0.2922
     47 H         -3.135409   -0.598528   1.414833 H        1 UNL1     0.2126
     48 H         1.383503   1.038661   1.096253 H        1 UNL1     0.2101
     49 H         -0.208825   -1.775466   -0.949188 H        1 UNL1     0.2100
     50 H         1.364522   -3.176216   3.701101 H        1 UNL1     0.2102
@<TRIPOS>BOND
     1     1     2    1
     2     1     6    1
     3     2     3    1
     4     3     4    1
     5     3    29    1
     6     3    33    1
     7     4     5    1
     8     5     6    1
     9     5     7    1
    10     5    35    1
    11     7     8    1
    12     8     9   ar
    13     8    13   ar
    14     9    10   ar
    15     9    36    1
    16    10    11   ar
    17    10    26    1
    18    11    12   ar
    19    11    14    1
    20    12    13   ar
    21    12    17    1
    22    13    37    1
    23    14    15    1
    24    14    25    2
    25    15    16    1
    26    15    38    1
    27    15    39    1
    28    16    17    1
    29    16    18    1
    30    16    40    1
    31    18    19   ar
    32    18    23   ar
    33    19    20   ar
    34    19    41    1
    35    20    21   ar
    36    20    42    1
    37    21    22   ar
    38    21    24    1
    39    22    23   ar
    40    22    43    1
    41    23    44    1
    42    24    45    1
    43    26    46    1
    44    27    47    1
    45    28    48    1
    46    29    49    1
    47    30    50    1
    48     1    31    1
    49     1    27    1
    50     2    32    1
    51     2    28    1
    52     4    34    1
    53     4    30    1
