@<TRIPOS>MOLECULE
*****
 50 53 0 0 0
SMALL
GASTEIGER

@<TRIPOS>ATOM
     1 C         -0.345976   -1.336509   1.692586 C.3        1 UNL1     0.1889
     2 C         -0.4693   -0.973591   0.188252 C.3        1 UNL1     0.1342
     3 C         -1.908287   -0.948587   -0.349483 C.3        1 UNL1     0.1174
     4 C         -2.803466   -2.006154   0.301151 C.3        1 UNL1     0.1456
     5 C         -2.65699   -2.041785   1.833352 C.3        1 UNL1     0.2326
     6 O         -1.294656   -2.270716   2.186204 O.3        1 UNL1     -0.3076
     7 O         -3.226701   -0.895071   2.490465 O.3        1 UNL1     -0.4605
     8 C         -3.748924   -1.116648   3.752097 C.ar        1 UNL1     0.1310
     9 C         -4.578197   -2.185174   4.109669 C.ar        1 UNL1     0.0226
     10 C         -5.04339   -2.332639   5.421824 C.ar        1 UNL1     0.1343
     11 C         -4.670839   -1.427431   6.414621 C.ar        1 UNL1     0.1007
     12 C         -3.876558   -0.333513   6.060723 C.ar        1 UNL1     0.1389
     13 C         -3.411099   -0.184   4.740713 C.ar        1 UNL1     0.0229
     14 C         -5.064676   -1.581931   7.83419 C.2        1 UNL1     0.1740
     15 C         -4.394987   -0.648123   8.799109 C.3        1 UNL1     0.0520
     16 C         -4.30761   0.728733   8.155222 C.3        1 UNL1     0.1322
     17 O         -3.539385   0.675385   6.932907 O.3        1 UNL1     -0.4828
     18 C         -5.65934   1.43477   8.0246 C.ar        1 UNL1     -0.0067
     19 C         -6.015383   2.027059   6.795519 C.ar        1 UNL1     -0.0516
     20 C         -7.223078   2.721266   6.655828 C.ar        1 UNL1     -0.0198
     21 C         -8.078024   2.836295   7.737338 C.ar        1 UNL1     0.1169
     22 C         -7.770615   2.23533   8.951084 C.ar        1 UNL1     -0.0198
     23 C         -6.57152   1.525343   9.085788 C.ar        1 UNL1     -0.0516
     24 O         -9.227616   3.552028   7.574351 O.3        1 UNL1     -0.5068
     25 O         -5.824954   -2.460151   8.233179 O.2        1 UNL1     -0.2917
     26 O         -5.849957   -3.396066   5.704945 O.3        1 UNL1     -0.5058
     27 O         -0.236125   -0.20412   2.54018 O.3        1 UNL1     -0.3648
     28 O         0.257433   -1.952025   -0.578059 O.3        1 UNL1     -0.3841
     29 O         -2.457564   0.36809   -0.267086 O.3        1 UNL1     -0.3863
     30 O         -2.462546   -3.305948   -0.227997 O.3        1 UNL1     -0.3829
     31 H         0.611001   -1.856238   1.81157 H        1 UNL1     0.0937
     32 H         0.0   0.0   0.0 H        1 UNL1     0.0671
     33 H         -1.869329   -1.181837   -1.4227 H        1 UNL1     0.0649
     34 H         -3.851589   -1.81953   0.042287 H        1 UNL1     0.0683
     35 H         -3.218411   -2.935921   2.132026 H        1 UNL1     0.1085
     36 H         -4.857918   -2.953192   3.396909 H        1 UNL1     0.0691
     37 H         -2.794965   0.676996   4.4906 H        1 UNL1     0.0691
     38 H         -3.398026   -1.049295   9.010429 H        1 UNL1     0.0385
     39 H         -4.962756   -0.631948   9.735675 H        1 UNL1     0.0385
     40 H         -3.712284   1.362679   8.826206 H        1 UNL1     0.0789
     41 H         -5.357289   1.958717   5.934187 H        1 UNL1     0.0623
     42 H         -7.480842   3.183773   5.706272 H        1 UNL1     0.0654
     43 H         -8.439909   2.306403   9.800145 H        1 UNL1     0.0654
     44 H         -6.36837   1.05957   10.045283 H        1 UNL1     0.0623
     45 H         -8.990451   4.465154   7.344853 H        1 UNL1     0.2921
     46 H         -5.457493   -3.917701   6.422776 H        1 UNL1     0.2922
     47 H         0.508752   0.348675   2.265525 H        1 UNL1     0.2126
     48 H         1.193143   -1.880206   -0.307835 H        1 UNL1     0.2101
     49 H         -2.018754   0.949452   -0.90838 H        1 UNL1     0.2100
     50 H         -2.69804   -3.315615   -1.178871 H        1 UNL1     0.2102
@<TRIPOS>BOND
     1     1     2    1
     2     1     6    1
     3     2     3    1
     4     3     4    1
     5     3    29    1
     6     3    33    1
     7     4     5    1
     8     5     6    1
     9     5     7    1
    10     5    35    1
    11     7     8    1
    12     8     9   ar
    13     8    13   ar
    14     9    10   ar
    15     9    36    1
    16    10    11   ar
    17    10    26    1
    18    11    12   ar
    19    11    14    1
    20    12    13   ar
    21    12    17    1
    22    13    37    1
    23    14    15    1
    24    14    25    2
    25    15    16    1
    26    15    38    1
    27    15    39    1
    28    16    17    1
    29    16    18    1
    30    16    40    1
    31    18    19   ar
    32    18    23   ar
    33    19    20   ar
    34    19    41    1
    35    20    21   ar
    36    20    42    1
    37    21    22   ar
    38    21    24    1
    39    22    23   ar
    40    22    43    1
    41    23    44    1
    42    24    45    1
    43    26    46    1
    44    27    47    1
    45    28    48    1
    46    29    49    1
    47    30    50    1
    48     1    31    1
    49     1    27    1
    50     2    32    1
    51     2    28    1
    52     4    34    1
    53     4    30    1
