@<TRIPOS>MOLECULE
*****
 50 53 0 0 0
SMALL
GASTEIGER

@<TRIPOS>ATOM
     1 C         1.218662   1.367464   -1.189836 C.3        1 UNL1     0.1889
     2 C         -0.064382   0.523823   -0.961783 C.3        1 UNL1     0.1342
     3 C         -0.365635   -0.497399   -2.0694 C.3        1 UNL1     0.1174
     4 C         0.036237   -0.000303   -3.460268 C.3        1 UNL1     0.1456
     5 C         1.444937   0.620586   -3.480904 C.3        1 UNL1     0.2326
     6 O         1.518961   1.689195   -2.539912 O.3        1 UNL1     -0.3076
     7 O         2.499699   -0.345895   -3.323707 O.3        1 UNL1     -0.4605
     8 C         2.351499   -1.24044   -2.279028 C.ar        1 UNL1     0.1310
     9 C         3.342899   -2.108152   -1.808388 C.ar        1 UNL1     0.0226
     10 C         3.100325   -2.967287   -0.729988 C.ar        1 UNL1     0.1343
     11 C         1.866809   -2.962552   -0.080175 C.ar        1 UNL1     0.1007
     12 C         0.855681   -2.129893   -0.567086 C.ar        1 UNL1     0.1389
     13 C         1.098993   -1.268033   -1.653101 C.ar        1 UNL1     0.0229
     14 C         1.583732   -3.788639   1.116321 C.2        1 UNL1     0.1740
     15 C         0.289808   -3.494674   1.816959 C.3        1 UNL1     0.0520
     16 C         -0.782065   -3.245678   0.764796 C.3        1 UNL1     0.1322
     17 O         -0.427844   -2.12282   -0.072335 O.3        1 UNL1     -0.4828
     18 C         -1.195994   -4.50353   -0.002794 C.ar        1 UNL1     -0.0067
     19 C         -2.462348   -5.075592   0.236595 C.ar        1 UNL1     -0.0516
     20 C         -2.853421   -6.252349   -0.413225 C.ar        1 UNL1     -0.0198
     21 C         -1.986313   -6.869298   -1.297152 C.ar        1 UNL1     0.1169
     22 C         -0.745846   -6.311877   -1.578865 C.ar        1 UNL1     -0.0198
     23 C         -0.36183   -5.125114   -0.943112 C.ar        1 UNL1     -0.0516
     24 O         -2.38683   -8.03435   -1.882508 O.3        1 UNL1     -0.5068
     25 O         2.374209   -4.610183   1.573155 O.2        1 UNL1     -0.2917
     26 O         4.109061   -3.789644   -0.320395 O.3        1 UNL1     -0.5058
     27 O         2.355263   0.864   -0.506133 O.3        1 UNL1     -0.3648
     28 O         -1.190406   1.417662   -0.885435 O.3        1 UNL1     -0.3841
     29 O         0.19956   -1.771002   -1.752191 O.3        1 UNL1     -0.3863
     30 O         -0.915075   0.992617   -3.901635 O.3        1 UNL1     -0.3829
     31 H         1.037007   2.344165   -0.728171 H        1 UNL1     0.0937
     32 H         0.0   -0.0   0.0 H        1 UNL1     0.0671
     33 H         -1.452616   -0.65779   -2.091035 H        1 UNL1     0.0649
     34 H         -0.005576   -0.826111   -4.179082 H        1 UNL1     0.0683
     35 H         1.521798   1.068935   -4.47938 H        1 UNL1     0.1085
     36 H         4.339982   -2.119586   -2.234787 H        1 UNL1     0.0691
     37 H         0.294781   -0.630381   -2.013846 H        1 UNL1     0.0691
     38 H         0.44486   -2.607664   2.440416 H        1 UNL1     0.0385
     39 H         0.038292   -4.334553   2.473557 H        1 UNL1     0.0385
     40 H         -1.686441   -2.918158   1.295224 H        1 UNL1     0.0789
     41 H         -3.157552   -4.61554   0.932795 H        1 UNL1     0.0623
     42 H         -3.827848   -6.690178   -0.211214 H        1 UNL1     0.0654
     43 H         -0.065038   -6.778588   -2.280713 H        1 UNL1     0.0654
     44 H         0.610126   -4.711908   -1.194921 H        1 UNL1     0.0623
     45 H         -2.962919   -8.507791   -1.260663 H        1 UNL1     0.2921
     46 H         4.930654   -3.544949   -0.774843 H        1 UNL1     0.2922
     47 H         2.422828   -0.093236   -0.628581 H        1 UNL1     0.2126
     48 H         -1.28475   1.669102   0.053506 H        1 UNL1     0.2101
     49 H         1.105627   -1.824735   -2.095628 H        1 UNL1     0.2100
     50 H         -1.805024   0.710409   -3.604884 H        1 UNL1     0.2102
@<TRIPOS>BOND
     1     1     2    1
     2     1     6    1
     3     2     3    1
     4     3     4    1
     5     3    29    1
     6     3    33    1
     7     4     5    1
     8     5     6    1
     9     5     7    1
    10     5    35    1
    11     7     8    1
    12     8     9   ar
    13     8    13   ar
    14     9    10   ar
    15     9    36    1
    16    10    11   ar
    17    10    26    1
    18    11    12   ar
    19    11    14    1
    20    12    13   ar
    21    12    17    1
    22    13    37    1
    23    14    15    1
    24    14    25    2
    25    15    16    1
    26    15    38    1
    27    15    39    1
    28    16    17    1
    29    16    18    1
    30    16    40    1
    31    18    19   ar
    32    18    23   ar
    33    19    20   ar
    34    19    41    1
    35    20    21   ar
    36    20    42    1
    37    21    22   ar
    38    21    24    1
    39    22    23   ar
    40    22    43    1
    41    23    44    1
    42    24    45    1
    43    26    46    1
    44    27    47    1
    45    28    48    1
    46    29    49    1
    47    30    50    1
    48     1    31    1
    49     1    27    1
    50     2    32    1
    51     2    28    1
    52     4    34    1
    53     4    30    1
