@<TRIPOS>MOLECULE
*****
 50 53 0 0 0
SMALL
GASTEIGER

@<TRIPOS>ATOM
     1 C         -1.119417   -1.407759   1.239325 C.3        1 UNL1     0.1889
     2 C         -0.326057   -1.04652   -0.045209 C.3        1 UNL1     0.1342
     3 C         -1.091175   -1.276755   -1.357478 C.3        1 UNL1     0.1174
     4 C         -2.019395   -2.492472   -1.297841 C.3        1 UNL1     0.1456
     5 C         -2.86308   -2.528304   -0.010489 C.3        1 UNL1     0.2326
     6 O         -2.009042   -2.509231   1.131055 O.3        1 UNL1     -0.3076
     7 O         -3.88715   -1.517961   0.032027 O.3        1 UNL1     -0.4605
     8 C         -3.657951   -0.458266   0.891121 C.ar        1 UNL1     0.1310
     9 C         -2.747735   0.581132   0.670987 C.ar        1 UNL1     0.0226
     10 C         -2.599722   1.621559   1.595923 C.ar        1 UNL1     0.1343
     11 C         -3.376225   1.66039   2.753238 C.ar        1 UNL1     0.1007
     12 C         -4.259157   0.606644   3.003906 C.ar        1 UNL1     0.1389
     13 C         -4.405896   -0.440757   2.075009 C.ar        1 UNL1     0.0229
     14 C         -3.320941   2.778758   3.722954 C.2        1 UNL1     0.1740
     15 C         -4.378212   2.767788   4.787664 C.3        1 UNL1     0.0520
     16 C         -4.574957   1.332714   5.256503 C.3        1 UNL1     0.1322
     17 O         -4.99293   0.488234   4.161413 O.3        1 UNL1     -0.4828
     18 C         -3.399665   0.783181   6.068554 C.ar        1 UNL1     -0.0067
     19 C         -2.465962   1.67904   6.628774 C.ar        1 UNL1     -0.0516
     20 C         -1.353872   1.207852   7.336728 C.ar        1 UNL1     -0.0198
     21 C         -1.160734   -0.153986   7.48479 C.ar        1 UNL1     0.1169
     22 C         -2.08052   -1.060195   6.973304 C.ar        1 UNL1     -0.0198
     23 C         -3.202478   -0.58879   6.281174 C.ar        1 UNL1     -0.0516
     24 O         -0.046222   -0.57655   8.147893 O.3        1 UNL1     -0.5068
     25 O         -2.523992   3.709338   3.637065 O.2        1 UNL1     -0.2917
     26 O         -1.693758   2.604374   1.322265 O.3        1 UNL1     -0.5058
     27 O         -1.741966   -0.290011   1.852399 O.3        1 UNL1     -0.3648
     28 O         0.860399   -1.860636   -0.092599 O.3        1 UNL1     -0.3841
     29 O         -1.765416   -0.085211   -1.767057 O.3        1 UNL1     -0.3863
     30 O         -1.226617   -3.697639   -1.366851 O.3        1 UNL1     -0.3829
     31 H         -0.383259   -1.744765   1.977279 H        1 UNL1     0.0937
     32 H         0.0   0.0   0.0 H        1 UNL1     0.0671
     33 H         -0.352303   -1.479396   -2.145338 H        1 UNL1     0.0649
     34 H         -2.685984   -2.49706   -2.167347 H        1 UNL1     0.0683
     35 H         -3.340984   -3.515672   -0.034823 H        1 UNL1     0.1085
     36 H         -2.155282   0.637816   -0.235603 H        1 UNL1     0.0691
     37 H         -5.099256   -1.249901   2.294167 H        1 UNL1     0.0691
     38 H         -5.296939   3.168537   4.346225 H        1 UNL1     0.0385
     39 H         -4.072867   3.431749   5.603568 H        1 UNL1     0.0385
     40 H         -5.430136   1.331745   5.945842 H        1 UNL1     0.0789
     41 H         -2.590209   2.752391   6.518633 H        1 UNL1     0.0623
     42 H         -0.634639   1.908405   7.75379 H        1 UNL1     0.0654
     43 H         -1.946921   -2.128324   7.096435 H        1 UNL1     0.0654
     44 H         -3.906129   -1.324688   5.904114 H        1 UNL1     0.0623
     45 H         -0.326478   -1.053995   8.945527 H        1 UNL1     0.2921
     46 H         -0.88828   2.20839   0.953737 H        1 UNL1     0.2922
     47 H         -1.695192   0.480689   1.269566 H        1 UNL1     0.2126
     48 H         1.359606   -1.675374   0.72606 H        1 UNL1     0.2101
     49 H         -1.205547   0.416401   -2.380837 H        1 UNL1     0.2100
     50 H         -0.283972   -3.435918   -1.418193 H        1 UNL1     0.2102
@<TRIPOS>BOND
     1     1     2    1
     2     1     6    1
     3     2     3    1
     4     3     4    1
     5     3    29    1
     6     3    33    1
     7     4     5    1
     8     5     6    1
     9     5     7    1
    10     5    35    1
    11     7     8    1
    12     8     9   ar
    13     8    13   ar
    14     9    10   ar
    15     9    36    1
    16    10    11   ar
    17    10    26    1
    18    11    12   ar
    19    11    14    1
    20    12    13   ar
    21    12    17    1
    22    13    37    1
    23    14    15    1
    24    14    25    2
    25    15    16    1
    26    15    38    1
    27    15    39    1
    28    16    17    1
    29    16    18    1
    30    16    40    1
    31    18    19   ar
    32    18    23   ar
    33    19    20   ar
    34    19    41    1
    35    20    21   ar
    36    20    42    1
    37    21    22   ar
    38    21    24    1
    39    22    23   ar
    40    22    43    1
    41    23    44    1
    42    24    45    1
    43    26    46    1
    44    27    47    1
    45    28    48    1
    46    29    49    1
    47    30    50    1
    48     1    31    1
    49     1    27    1
    50     2    32    1
    51     2    28    1
    52     4    34    1
    53     4    30    1
