@<TRIPOS>MOLECULE
*****
 50 53 0 0 0
SMALL
GASTEIGER

@<TRIPOS>ATOM
     1 C         -1.446183   0.451354   -1.573416 C.3        1 UNL1     0.1889
     2 C         -0.736113   0.779514   -0.232502 C.3        1 UNL1     0.1342
     3 C         -1.679894   0.951458   0.967572 C.3        1 UNL1     0.1174
     4 C         -3.016276   1.592192   0.584609 C.3        1 UNL1     0.1456
     5 C         -3.63544   0.958314   -0.674438 C.3        1 UNL1     0.2326
     6 O         -2.720393   1.048354   -1.76414 O.3        1 UNL1     -0.3076
     7 O         -4.130634   -0.375918   -0.460129 O.3        1 UNL1     -0.4605
     8 C         -4.041125   -1.23642   -1.539506 C.ar        1 UNL1     0.1310
     9 C         -4.817535   -2.385099   -1.726656 C.ar        1 UNL1     0.0226
     10 C         -4.663519   -3.185195   -2.865088 C.ar        1 UNL1     0.1343
     11 C         -3.745016   -2.842552   -3.856445 C.ar        1 UNL1     0.1007
     12 C         -2.935276   -1.720486   -3.661326 C.ar        1 UNL1     0.1389
     13 C         -3.088487   -0.917629   -2.515299 C.ar        1 UNL1     0.0229
     14 C         -3.599922   -3.605009   -5.118095 C.2        1 UNL1     0.1740
     15 C         -2.729438   -2.971352   -6.16322 C.3        1 UNL1     0.0520
     16 C         -1.518222   -2.357987   -5.474238 C.3        1 UNL1     0.1322
     17 O         -1.925538   -1.35266   -4.520046 O.3        1 UNL1     -0.4828
     18 C         -0.532749   -3.39208   -4.924493 C.ar        1 UNL1     -0.0067
     19 C         -0.770933   -3.972896   -3.661902 C.ar        1 UNL1     -0.0516
     20 C         0.134635   -4.886267   -3.109035 C.ar        1 UNL1     -0.0198
     21 C         1.283141   -5.220682   -3.803966 C.ar        1 UNL1     0.1169
     22 C         1.528829   -4.690987   -5.064085 C.ar        1 UNL1     -0.0198
     23 C         0.614267   -3.791693   -5.625247 C.ar        1 UNL1     -0.0516
     24 O         2.160537   -6.084611   -3.217278 O.3        1 UNL1     -0.5068
     25 O         -4.204387   -4.648545   -5.350771 O.2        1 UNL1     -0.2917
     26 O         -5.450917   -4.292788   -2.986848 O.3        1 UNL1     -0.5058
     27 O         -1.465973   -0.934064   -1.878399 O.3        1 UNL1     -0.3648
     28 O         -0.013328   2.014685   -0.389477 O.3        1 UNL1     -0.3841
     29 O         -1.839017   -0.283638   1.668535 O.3        1 UNL1     -0.3863
     30 O         -2.813934   3.001585   0.343033 O.3        1 UNL1     -0.3829
     31 H         -0.834768   0.893578   -2.367574 H        1 UNL1     0.0937
     32 H         0.0   0.0   0.0 H        1 UNL1     0.0671
     33 H         -1.194335   1.631554   1.68131 H        1 UNL1     0.0649
     34 H         -3.723586   1.507974   1.417088 H        1 UNL1     0.0683
     35 H         -4.481077   1.615512   -0.912911 H        1 UNL1     0.1085
     36 H         -5.587467   -2.674349   -1.01979 H        1 UNL1     0.0691
     37 H         -2.445009   -0.049971   -2.386462 H        1 UNL1     0.0691
     38 H         -3.325354   -2.205134   -6.670489 H        1 UNL1     0.0385
     39 H         -2.446092   -3.728915   -6.901862 H        1 UNL1     0.0385
     40 H         -0.958933   -1.800945   -6.238057 H        1 UNL1     0.0789
     41 H         -1.660526   -3.719847   -3.09248 H        1 UNL1     0.0623
     42 H         -0.054338   -5.318215   -2.129381 H        1 UNL1     0.0654
     43 H         2.417605   -4.957545   -5.623491 H        1 UNL1     0.0654
     44 H         0.832789   -3.405483   -6.616174 H        1 UNL1     0.0623
     45 H         1.665419   -6.661504   -2.613317 H        1 UNL1     0.2921
     46 H         -5.593317   -4.48675   -3.926802 H        1 UNL1     0.2922
     47 H         -0.664704   -1.3617   -1.545301 H        1 UNL1     0.2126
     48 H         -0.02404   2.457562   0.480854 H        1 UNL1     0.2101
     49 H         -2.56371   -0.795364   1.275151 H        1 UNL1     0.2100
     50 H         -2.23706   3.349618   1.054231 H        1 UNL1     0.2102
@<TRIPOS>BOND
     1     1     2    1
     2     1     6    1
     3     2     3    1
     4     3     4    1
     5     3    29    1
     6     3    33    1
     7     4     5    1
     8     5     6    1
     9     5     7    1
    10     5    35    1
    11     7     8    1
    12     8     9   ar
    13     8    13   ar
    14     9    10   ar
    15     9    36    1
    16    10    11   ar
    17    10    26    1
    18    11    12   ar
    19    11    14    1
    20    12    13   ar
    21    12    17    1
    22    13    37    1
    23    14    15    1
    24    14    25    2
    25    15    16    1
    26    15    38    1
    27    15    39    1
    28    16    17    1
    29    16    18    1
    30    16    40    1
    31    18    19   ar
    32    18    23   ar
    33    19    20   ar
    34    19    41    1
    35    20    21   ar
    36    20    42    1
    37    21    22   ar
    38    21    24    1
    39    22    23   ar
    40    22    43    1
    41    23    44    1
    42    24    45    1
    43    26    46    1
    44    27    47    1
    45    28    48    1
    46    29    49    1
    47    30    50    1
    48     1    31    1
    49     1    27    1
    50     2    32    1
    51     2    28    1
    52     4    34    1
    53     4    30    1
