@<TRIPOS>MOLECULE
*****
 50 53 0 0 0
SMALL
GASTEIGER

@<TRIPOS>ATOM
     1 C         -0.335264   -1.330403   1.699538 C.3        1 UNL1     0.1889
     2 C         -0.463999   -0.975031   0.193856 C.3        1 UNL1     0.1342
     3 C         -1.904377   -0.959645   -0.340502 C.3        1 UNL1     0.1174
     4 C         -2.792722   -2.018635   0.317146 C.3        1 UNL1     0.1456
     5 C         -2.642397   -2.046484   1.849135 C.3        1 UNL1     0.2326
     6 O         -1.278099   -2.267024   2.199736 O.3        1 UNL1     -0.3076
     7 O         -3.216228   -0.899598   2.502353 O.3        1 UNL1     -0.4605
     8 C         -3.727521   -1.116291   3.769299 C.ar        1 UNL1     0.1310
     9 C         -4.545827   -2.188648   4.140414 C.ar        1 UNL1     0.0226
     10 C         -5.000304   -2.330435   5.456944 C.ar        1 UNL1     0.1343
     11 C         -4.627605   -1.415382   6.440618 C.ar        1 UNL1     0.1007
     12 C         -3.84446   -0.31788   6.073253 C.ar        1 UNL1     0.1389
     13 C         -3.38979   -0.174098   4.748854 C.ar        1 UNL1     0.0229
     14 C         -5.009894   -1.562892   7.864082 C.2        1 UNL1     0.1740
     15 C         -4.340498   -0.617139   8.817502 C.3        1 UNL1     0.0520
     16 C         -4.26853   0.755768   8.16336 C.3        1 UNL1     0.1322
     17 O         -3.50882   0.699732   6.935854 O.3        1 UNL1     -0.4828
     18 C         -5.626631   1.450388   8.0377 C.ar        1 UNL1     -0.0067
     19 C         -6.002489   2.018162   6.802963 C.ar        1 UNL1     -0.0516
     20 C         -7.216605   2.701744   6.666579 C.ar        1 UNL1     -0.0198
     21 C         -8.058349   2.830497   7.756862 C.ar        1 UNL1     0.1169
     22 C         -7.731258   2.253451   8.977054 C.ar        1 UNL1     -0.0198
     23 C         -6.525696   1.553945   9.108845 C.ar        1 UNL1     -0.0516
     24 O         -9.214816   3.535567   7.59605 O.3        1 UNL1     -0.5068
     25 O         -5.760389   -2.444127   8.274773 O.2        1 UNL1     -0.2917
     26 O         -5.796485   -3.398043   5.75341 O.3        1 UNL1     -0.5058
     27 O         -0.229015   -0.193592   2.541654 O.3        1 UNL1     -0.3648
     28 O         0.265752   -1.953364   -0.56971 O.3        1 UNL1     -0.3841
     29 O         -2.459998   0.354655   -0.262823 O.3        1 UNL1     -0.3863
     30 O         -2.446611   -3.319144   -0.206851 O.3        1 UNL1     -0.3829
     31 H         0.624569   -1.844823   1.81859 H        1 UNL1     0.0937
     32 H         0.0   0.0   0.0 H        1 UNL1     0.0671
     33 H         -1.866834   -1.197637   -1.412729 H        1 UNL1     0.0649
     34 H         -3.842378   -1.838408   0.059967 H        1 UNL1     0.0683
     35 H         -3.198646   -2.94201   2.153271 H        1 UNL1     0.1085
     36 H         -4.824734   -2.963822   3.435122 H        1 UNL1     0.0691
     37 H         -2.782214   0.68985   4.488207 H        1 UNL1     0.0691
     38 H         -3.338933   -1.009085   9.024318 H        1 UNL1     0.0385
     39 H         -4.901551   -0.598742   9.758065 H        1 UNL1     0.0385
     40 H         -3.673296   1.399025   8.825506 H        1 UNL1     0.0789
     41 H         -5.355067   1.938736   5.934524 H        1 UNL1     0.0623
     42 H         -7.489714   3.145425   5.71234 H        1 UNL1     0.0654
     43 H         -8.390055   2.335314   9.833322 H        1 UNL1     0.0654
     44 H         -6.307047   1.106816   10.073787 H        1 UNL1     0.0623
     45 H         -8.986947   4.445245   7.3445 H        1 UNL1     0.2921
     46 H         -5.394072   -3.91232   6.471042 H        1 UNL1     0.2922
     47 H         0.513291   0.360915   2.26351 H        1 UNL1     0.2126
     48 H         1.199488   -1.885386   -0.291774 H        1 UNL1     0.2101
     49 H         -2.019898   0.937309   -0.902058 H        1 UNL1     0.2100
     50 H         -2.679112   -3.332435   -1.158418 H        1 UNL1     0.2102
@<TRIPOS>BOND
     1     1     2    1
     2     1     6    1
     3     2     3    1
     4     3     4    1
     5     3    29    1
     6     3    33    1
     7     4     5    1
     8     5     6    1
     9     5     7    1
    10     5    35    1
    11     7     8    1
    12     8     9   ar
    13     8    13   ar
    14     9    10   ar
    15     9    36    1
    16    10    11   ar
    17    10    26    1
    18    11    12   ar
    19    11    14    1
    20    12    13   ar
    21    12    17    1
    22    13    37    1
    23    14    15    1
    24    14    25    2
    25    15    16    1
    26    15    38    1
    27    15    39    1
    28    16    17    1
    29    16    18    1
    30    16    40    1
    31    18    19   ar
    32    18    23   ar
    33    19    20   ar
    34    19    41    1
    35    20    21   ar
    36    20    42    1
    37    21    22   ar
    38    21    24    1
    39    22    23   ar
    40    22    43    1
    41    23    44    1
    42    24    45    1
    43    26    46    1
    44    27    47    1
    45    28    48    1
    46    29    49    1
    47    30    50    1
    48     1    31    1
    49     1    27    1
    50     2    32    1
    51     2    28    1
    52     4    34    1
    53     4    30    1
