@<TRIPOS>MOLECULE
*****
 50 53 0 0 0
SMALL
GASTEIGER

@<TRIPOS>ATOM
     1 C         -0.330077   -1.327082   1.703146 C.3        1 UNL1     0.1889
     2 C         -0.461519   -0.975623   0.19678 C.3        1 UNL1     0.1342
     3 C         -1.9026   -0.964816   -0.335795 C.3        1 UNL1     0.1174
     4 C         -2.787688   -2.024254   0.325513 C.3        1 UNL1     0.1456
     5 C         -2.635373   -2.04808   1.857373 C.3        1 UNL1     0.2326
     6 O         -1.270134   -2.264654   2.206779 O.3        1 UNL1     -0.3076
     7 O         -3.211009   -0.900946   2.508562 O.3        1 UNL1     -0.4605
     8 C         -3.746898   -1.122248   3.764498 C.ar        1 UNL1     0.1310
     9 C         -4.580943   -2.19006   4.112991 C.ar        1 UNL1     0.0226
     10 C         -5.060278   -2.337313   5.420071 C.ar        1 UNL1     0.1343
     11 C         -4.697521   -1.432622   6.416957 C.ar        1 UNL1     0.1007
     12 C         -3.898481   -0.339386   6.071768 C.ar        1 UNL1     0.1389
     13 C         -3.418795   -0.190084   4.756838 C.ar        1 UNL1     0.0229
     14 C         -5.106658   -1.586993   7.832206 C.2        1 UNL1     0.1740
     15 C         -4.446454   -0.653975   8.804398 C.3        1 UNL1     0.0520
     16 C         -4.350914   0.722908   8.161729 C.3        1 UNL1     0.1322
     17 O         -3.569713   0.669049   6.947689 O.3        1 UNL1     -0.4828
     18 C         -5.700511   1.43023   8.016788 C.ar        1 UNL1     -0.0067
     19 C         -6.050351   2.007663   6.778888 C.ar        1 UNL1     -0.0516
     20 C         -7.255905   2.702721   6.625601 C.ar        1 UNL1     -0.0198
     21 C         -8.114854   2.833362   7.702155 C.ar        1 UNL1     0.1169
     22 C         -7.813607   2.247166   8.924638 C.ar        1 UNL1     -0.0198
     23 C         -6.616668   1.536285   9.073103 C.ar        1 UNL1     -0.0516
     24 O         -9.262165   3.549519   7.525533 O.3        1 UNL1     -0.5068
     25 O         -5.871977   -2.46457   8.222885 O.2        1 UNL1     -0.2917
     26 O         -5.870817   -3.400034   5.694361 O.3        1 UNL1     -0.5058
     27 O         -0.225375   -0.188012   2.542399 O.3        1 UNL1     -0.3648
     28 O         0.269512   -1.954113   -0.565359 O.3        1 UNL1     -0.3841
     29 O         -2.461133   0.348392   -0.260567 O.3        1 UNL1     -0.3863
     30 O         -2.439256   -3.325222   -0.195801 O.3        1 UNL1     -0.3829
     31 H         0.631081   -1.839016   1.822219 H        1 UNL1     0.0937
     32 H         0.0   0.0   0.0 H        1 UNL1     0.0671
     33 H         -1.865859   -1.205296   -1.407494 H        1 UNL1     0.0649
     34 H         -3.838077   -1.847049   0.069227 H        1 UNL1     0.0683
     35 H         -3.189185   -2.944145   2.164358 H        1 UNL1     0.1085
     36 H         -4.853743   -2.957696   3.397144 H        1 UNL1     0.0691
     37 H         -2.799219   0.670378   4.513481 H        1 UNL1     0.0691
     38 H         -3.452184   -1.056114   9.026294 H        1 UNL1     0.0385
     39 H         -5.02419   -0.637428   9.734842 H        1 UNL1     0.0385
     40 H         -3.762207   1.356184   8.839154 H        1 UNL1     0.0789
     41 H         -5.389016   1.926938   5.921117 H        1 UNL1     0.0623
     42 H         -7.508865   3.153713   5.669239 H        1 UNL1     0.0654
     43 H         -8.486087   2.330492   9.770059 H        1 UNL1     0.0654
     44 H         -6.418369   1.082275   10.039228 H        1 UNL1     0.0623
     45 H         -9.022137   4.456655   7.276118 H        1 UNL1     0.2921
     46 H         -5.485181   -3.923659   6.41444 H        1 UNL1     0.2922
     47 H         0.517109   0.366026   2.263795 H        1 UNL1     0.2126
     48 H         1.20238   -1.887719   -0.284146 H        1 UNL1     0.2101
     49 H         -2.022995   0.93058   -0.901571 H        1 UNL1     0.2100
     50 H         -2.672922   -3.341331   -1.147039 H        1 UNL1     0.2102
@<TRIPOS>BOND
     1     1     2    1
     2     1     6    1
     3     2     3    1
     4     3     4    1
     5     3    29    1
     6     3    33    1
     7     4     5    1
     8     5     6    1
     9     5     7    1
    10     5    35    1
    11     7     8    1
    12     8     9   ar
    13     8    13   ar
    14     9    10   ar
    15     9    36    1
    16    10    11   ar
    17    10    26    1
    18    11    12   ar
    19    11    14    1
    20    12    13   ar
    21    12    17    1
    22    13    37    1
    23    14    15    1
    24    14    25    2
    25    15    16    1
    26    15    38    1
    27    15    39    1
    28    16    17    1
    29    16    18    1
    30    16    40    1
    31    18    19   ar
    32    18    23   ar
    33    19    20   ar
    34    19    41    1
    35    20    21   ar
    36    20    42    1
    37    21    22   ar
    38    21    24    1
    39    22    23   ar
    40    22    43    1
    41    23    44    1
    42    24    45    1
    43    26    46    1
    44    27    47    1
    45    28    48    1
    46    29    49    1
    47    30    50    1
    48     1    31    1
    49     1    27    1
    50     2    32    1
    51     2    28    1
    52     4    34    1
    53     4    30    1
