@<TRIPOS>MOLECULE
*****
 50 53 0 0 0
SMALL
GASTEIGER

@<TRIPOS>ATOM
     1 C         -0.630076   -0.81824   -1.924654 C.3        1 UNL1     0.1889
     2 C         -0.716183   -0.740831   -0.37658 C.3        1 UNL1     0.1342
     3 C         -0.482458   -2.076263   0.346234 C.3        1 UNL1     0.1174
     4 C         -1.026939   -3.276086   -0.432922 C.3        1 UNL1     0.1456
     5 C         -0.63793   -3.23856   -1.922092 C.3        1 UNL1     0.2326
     6 O         -1.094548   -2.024126   -2.513295 O.3        1 UNL1     -0.3076
     7 O         0.759444   -3.491392   -2.15606 O.3        1 UNL1     -0.4605
     8 C         1.178615   -3.407985   -3.471684 C.ar        1 UNL1     0.1310
     9 C         0.370419   -3.05921   -4.559101 C.ar        1 UNL1     0.0226
     10 C         0.893672   -2.985579   -5.855514 C.ar        1 UNL1     0.1343
     11 C         2.244548   -3.236006   -6.092707 C.ar        1 UNL1     0.1007
     12 C         3.052546   -3.625207   -5.021052 C.ar        1 UNL1     0.1389
     13 C         2.525591   -3.701742   -3.71802 C.ar        1 UNL1     0.0229
     14 C         2.868004   -3.091071   -7.42854 C.2        1 UNL1     0.1740
     15 C         4.365512   -3.180916   -7.459338 C.3        1 UNL1     0.0520
     16 C         4.80161   -4.285285   -6.506371 C.3        1 UNL1     0.1322
     17 O         4.369183   -3.999377   -5.157915 O.3        1 UNL1     -0.4828
     18 C         4.458609   -5.69384   -6.997336 C.ar        1 UNL1     -0.0067
     19 C         3.344158   -6.36469   -6.453119 C.ar        1 UNL1     -0.0516
     20 C         3.030445   -7.671495   -6.845305 C.ar        1 UNL1     -0.0198
     21 C         3.825839   -8.319533   -7.773326 C.ar        1 UNL1     0.1169
     22 C         4.910392   -7.67316   -8.351933 C.ar        1 UNL1     -0.0198
     23 C         5.213505   -6.359752   -7.973598 C.ar        1 UNL1     -0.0516
     24 O         3.5115   -9.605246   -8.102769 O.3        1 UNL1     -0.5068
     25 O         2.231961   -2.833532   -8.44717 O.2        1 UNL1     -0.2917
     26 O         0.052041   -2.640856   -6.872573 O.3        1 UNL1     -0.5058
     27 O         0.635574   -0.437324   -2.440231 O.3        1 UNL1     -0.3648
     28 O         -2.03239   -0.28281   -0.015303 O.3        1 UNL1     -0.3841
     29 O         0.893309   -2.225937   0.7026 O.3        1 UNL1     -0.3863
     30 O         -2.467338   -3.293761   -0.329831 O.3        1 UNL1     -0.3829
     31 H         -1.319059   -0.061026   -2.314538 H        1 UNL1     0.0937
     32 H         0.0   0.0   0.0 H        1 UNL1     0.0671
     33 H         -1.028634   -2.041835   1.299243 H        1 UNL1     0.0649
     34 H         -0.662219   -4.208149   0.012768 H        1 UNL1     0.0683
     35 H         -1.224213   -4.051116   -2.369197 H        1 UNL1     0.1085
     36 H         -0.674606   -2.798461   -4.432398 H        1 UNL1     0.0691
     37 H         3.175278   -4.00821   -2.901027 H        1 UNL1     0.0691
     38 H         4.762096   -2.209329   -7.145866 H        1 UNL1     0.0385
     39 H         4.692776   -3.368276   -8.487721 H        1 UNL1     0.0385
     40 H         5.898406   -4.254392   -6.455332 H        1 UNL1     0.0789
     41 H         2.709508   -5.881062   -5.716252 H        1 UNL1     0.0623
     42 H         2.175405   -8.182418   -6.409558 H        1 UNL1     0.0654
     43 H         5.531058   -8.165965   -9.090734 H        1 UNL1     0.0654
     44 H         6.061771   -5.881535   -8.453804 H        1 UNL1     0.0623
     45 H         3.735997   -10.177973   -7.351568 H        1 UNL1     0.2921
     46 H         -0.661741   -3.294845   -6.937575 H        1 UNL1     0.2922
     47 H         0.561552   -0.214643   -3.378737 H        1 UNL1     0.2126
     48 H         -2.507463   -1.055071   0.347533 H        1 UNL1     0.2101
     49 H         1.17871   -3.13922   0.540568 H        1 UNL1     0.2100
     50 H         -2.811709   -2.495124   -0.78072 H        1 UNL1     0.2102
@<TRIPOS>BOND
     1     1     2    1
     2     1     6    1
     3     2     3    1
     4     3     4    1
     5     3    29    1
     6     3    33    1
     7     4     5    1
     8     5     6    1
     9     5     7    1
    10     5    35    1
    11     7     8    1
    12     8     9   ar
    13     8    13   ar
    14     9    10   ar
    15     9    36    1
    16    10    11   ar
    17    10    26    1
    18    11    12   ar
    19    11    14    1
    20    12    13   ar
    21    12    17    1
    22    13    37    1
    23    14    15    1
    24    14    25    2
    25    15    16    1
    26    15    38    1
    27    15    39    1
    28    16    17    1
    29    16    18    1
    30    16    40    1
    31    18    19   ar
    32    18    23   ar
    33    19    20   ar
    34    19    41    1
    35    20    21   ar
    36    20    42    1
    37    21    22   ar
    38    21    24    1
    39    22    23   ar
    40    22    43    1
    41    23    44    1
    42    24    45    1
    43    26    46    1
    44    27    47    1
    45    28    48    1
    46    29    49    1
    47    30    50    1
    48     1    31    1
    49     1    27    1
    50     2    32    1
    51     2    28    1
    52     4    34    1
    53     4    30    1
