@<TRIPOS>MOLECULE
*****
 50 53 0 0 0
SMALL
GASTEIGER

@<TRIPOS>ATOM
     1 C         0.468234   -0.770452   1.989463 C.3        1 UNL1     0.1889
     2 C         0.047914   -0.970896   0.508554 C.3        1 UNL1     0.1342
     3 C         -1.288023   -1.704522   0.314824 C.3        1 UNL1     0.1174
     4 C         -1.533641   -2.780318   1.375697 C.3        1 UNL1     0.1456
     5 C         -1.239649   -2.280728   2.802001 C.3        1 UNL1     0.2326
     6 O         0.103771   -1.810413   2.885032 O.3        1 UNL1     -0.3076
     7 O         -2.203688   -1.327842   3.28569 O.3        1 UNL1     -0.4605
     8 C         -1.829411   -0.599501   4.400574 C.ar        1 UNL1     0.1310
     9 C         -2.619686   -0.392992   5.536408 C.ar        1 UNL1     0.0226
     10 C         -2.143239   0.347645   6.62469 C.ar        1 UNL1     0.1343
     11 C         -0.854782   0.880176   6.613311 C.ar        1 UNL1     0.1007
     12 C         -0.071309   0.71545   5.467964 C.ar        1 UNL1     0.1389
     13 C         -0.551582   -0.027052   4.372766 C.ar        1 UNL1     0.0229
     14 C         -0.270331   1.599153   7.769011 C.2        1 UNL1     0.1740
     15 C         1.194986   1.906395   7.669022 C.3        1 UNL1     0.0520
     16 C         1.500428   2.338005   6.241306 C.3        1 UNL1     0.1322
     17 O         1.168993   1.287925   5.306131 O.3        1 UNL1     -0.4828
     18 C         0.93358   3.712711   5.878551 C.ar        1 UNL1     -0.0067
     19 C         1.814211   4.747485   5.501792 C.ar        1 UNL1     -0.0516
     20 C         1.333137   6.029366   5.20971 C.ar        1 UNL1     -0.0198
     21 C         -0.022547   6.290541   5.297659 C.ar        1 UNL1     0.1169
     22 C         -0.918171   5.283604   5.633478 C.ar        1 UNL1     -0.0198
     23 C         -0.439289   3.996924   5.907672 C.ar        1 UNL1     -0.0516
     24 O         -0.450129   7.560406   5.042674 O.3        1 UNL1     -0.5068
     25 O         -0.90125   1.866576   8.788281 O.2        1 UNL1     -0.2917
     26 O         -2.964357   0.513276   7.701684 O.3        1 UNL1     -0.5058
     27 O         0.130103   0.507256   2.505134 O.3        1 UNL1     -0.3648
     28 O         1.063382   -1.748362   -0.152564 O.3        1 UNL1     -0.3841
     29 O         -2.367211   -0.773617   0.210413 O.3        1 UNL1     -0.3863
     30 O         -0.689623   -3.919244   1.099704 O.3        1 UNL1     -0.3829
     31 H         1.563404   -0.787888   2.008912 H        1 UNL1     0.0937
     32 H         -0.0   0.0   0.0 H        1 UNL1     0.0671
     33 H         -1.250825   -2.218177   -0.655998 H        1 UNL1     0.0649
     34 H         -2.570786   -3.129278   1.321321 H        1 UNL1     0.0683
     35 H         -1.298812   -3.187278   3.417262 H        1 UNL1     0.1085
     36 H         -3.608766   -0.827901   5.629658 H        1 UNL1     0.0691
     37 H         0.077567   -0.139794   3.492451 H        1 UNL1     0.0691
     38 H         1.743086   0.99539   7.932048 H        1 UNL1     0.0385
     39 H         1.449799   2.681815   8.399483 H        1 UNL1     0.0385
     40 H         2.590878   2.442944   6.16113 H        1 UNL1     0.0789
     41 H         2.88365   4.570297   5.434304 H        1 UNL1     0.0623
     42 H         2.023527   6.821955   4.931904 H        1 UNL1     0.0654
     43 H         -1.983354   5.47341   5.690665 H        1 UNL1     0.0654
     44 H         -1.16836   3.231813   6.156479 H        1 UNL1     0.0623
     45 H         -1.242673   7.51078   4.48399 H        1 UNL1     0.2921
     46 H         -3.306299   1.421239   7.711196 H        1 UNL1     0.2922
     47 H         0.741836   1.176795   2.168447 H        1 UNL1     0.2126
     48 H         0.597381   -2.403967   -0.706421 H        1 UNL1     0.2101
     49 H         -2.800989   -0.866697   -0.652701 H        1 UNL1     0.2100
     50 H         -1.094812   -4.423563   0.364043 H        1 UNL1     0.2102
@<TRIPOS>BOND
     1     1     2    1
     2     1     6    1
     3     2     3    1
     4     3     4    1
     5     3    29    1
     6     3    33    1
     7     4     5    1
     8     5     6    1
     9     5     7    1
    10     5    35    1
    11     7     8    1
    12     8     9   ar
    13     8    13   ar
    14     9    10   ar
    15     9    36    1
    16    10    11   ar
    17    10    26    1
    18    11    12   ar
    19    11    14    1
    20    12    13   ar
    21    12    17    1
    22    13    37    1
    23    14    15    1
    24    14    25    2
    25    15    16    1
    26    15    38    1
    27    15    39    1
    28    16    17    1
    29    16    18    1
    30    16    40    1
    31    18    19   ar
    32    18    23   ar
    33    19    20   ar
    34    19    41    1
    35    20    21   ar
    36    20    42    1
    37    21    22   ar
    38    21    24    1
    39    22    23   ar
    40    22    43    1
    41    23    44    1
    42    24    45    1
    43    26    46    1
    44    27    47    1
    45    28    48    1
    46    29    49    1
    47    30    50    1
    48     1    31    1
    49     1    27    1
    50     2    32    1
    51     2    28    1
    52     4    34    1
    53     4    30    1
