@<TRIPOS>MOLECULE
*****
 50 53 0 0 0
SMALL
GASTEIGER

@<TRIPOS>ATOM
     1 C         -0.34708   -1.33701   1.691964 C.3        1 UNL1     0.1889
     2 C         -0.469881   -0.973408   0.187752 C.3        1 UNL1     0.1342
     3 C         -1.908738   -0.947384   -0.35028 C.3        1 UNL1     0.1174
     4 C         -2.804644   -2.00472   0.299729 C.3        1 UNL1     0.1456
     5 C         -2.658516   -2.04106   1.831946 C.3        1 UNL1     0.2326
     6 O         -1.296385   -2.270892   2.184996 O.3        1 UNL1     -0.3076
     7 O         -3.227731   -0.894299   2.489407 O.3        1 UNL1     -0.4605
     8 C         -3.750347   -1.116103   3.750836 C.ar        1 UNL1     0.1310
     9 C         -4.58029   -2.184315   4.107793 C.ar        1 UNL1     0.0226
     10 C         -5.045846   -2.332059   5.419788 C.ar        1 UNL1     0.1343
     11 C         -4.673005   -1.427465   6.413036 C.ar        1 UNL1     0.1007
     12 C         -3.878041   -0.333843   6.059756 C.ar        1 UNL1     0.1389
     13 C         -3.412216   -0.184048   4.739907 C.ar        1 UNL1     0.0229
     14 C         -5.067232   -1.582327   7.832457 C.2        1 UNL1     0.1740
     15 C         -4.397231   -0.649287   8.797902 C.3        1 UNL1     0.0520
     16 C         -4.308952   0.727784   8.154598 C.3        1 UNL1     0.1322
     17 O         -3.540494   0.67451   6.932426 O.3        1 UNL1     -0.4828
     18 C         -5.660261   1.434625   8.023976 C.ar        1 UNL1     -0.0067
     19 C         -6.015713   2.027615   6.795062 C.ar        1 UNL1     -0.0516
     20 C         -7.222991   2.72255   6.655397 C.ar        1 UNL1     -0.0198
     21 C         -8.078105   2.837611   7.736771 C.ar        1 UNL1     0.1169
     22 C         -7.77129   2.235978   8.950336 C.ar        1 UNL1     -0.0198
     23 C         -6.572618   1.52527   9.085005 C.ar        1 UNL1     -0.0516
     24 O         -9.227265   3.554049   7.573832 O.3        1 UNL1     -0.5068
     25 O         -5.828083   -2.460288   8.230923 O.2        1 UNL1     -0.2917
     26 O         -5.853064   -3.395154   5.702301 O.3        1 UNL1     -0.5058
     27 O         -0.236783   -0.20503   2.540045 O.3        1 UNL1     -0.3648
     28 O         0.256473   -1.951931   -0.578803 O.3        1 UNL1     -0.3841
     29 O         -2.457302   0.369564   -0.267461 O.3        1 UNL1     -0.3863
     30 O         -2.464332   -3.304486   -0.229879 O.3        1 UNL1     -0.3829
     31 H         0.609582   -1.857319   1.81094 H        1 UNL1     0.0937
     32 H         0.0   0.0   0.0 H        1 UNL1     0.0671
     33 H         -1.86968   -1.180216   -1.423585 H        1 UNL1     0.0649
     34 H         -3.852608   -1.817407   0.040718 H        1 UNL1     0.0683
     35 H         -3.220498   -2.935006   2.130134 H        1 UNL1     0.1085
     36 H         -4.860284   -2.951885   3.394659 H        1 UNL1     0.0691
     37 H         -2.79555   0.676708   4.490279 H        1 UNL1     0.0691
     38 H         -3.400538   -1.0511   9.009271 H        1 UNL1     0.0385
     39 H         -4.965192   -0.63318   9.734353 H        1 UNL1     0.0385
     40 H         -3.713418   1.361124   8.825969 H        1 UNL1     0.0789
     41 H         -5.357472   1.959261   5.933843 H        1 UNL1     0.0623
     42 H         -7.480295   3.185589   5.705975 H        1 UNL1     0.0654
     43 H         -8.440726   2.307074   9.799283 H        1 UNL1     0.0654
     44 H         -6.369933   1.058991   10.044353 H        1 UNL1     0.0623
     45 H         -8.989416   4.472344   7.366759 H        1 UNL1     0.2921
     46 H         -5.461044   -3.9173   6.420002 H        1 UNL1     0.2922
     47 H         0.505078   0.350323   2.262401 H        1 UNL1     0.2126
     48 H         1.195506   -1.865247   -0.324964 H        1 UNL1     0.2101
     49 H         -2.018032   0.950946   -0.908423 H        1 UNL1     0.2100
     50 H         -2.699629   -3.313633   -1.180807 H        1 UNL1     0.2102
@<TRIPOS>BOND
     1     1     2    1
     2     1     6    1
     3     2     3    1
     4     3     4    1
     5     3    29    1
     6     3    33    1
     7     4     5    1
     8     5     6    1
     9     5     7    1
    10     5    35    1
    11     7     8    1
    12     8     9   ar
    13     8    13   ar
    14     9    10   ar
    15     9    36    1
    16    10    11   ar
    17    10    26    1
    18    11    12   ar
    19    11    14    1
    20    12    13   ar
    21    12    17    1
    22    13    37    1
    23    14    15    1
    24    14    25    2
    25    15    16    1
    26    15    38    1
    27    15    39    1
    28    16    17    1
    29    16    18    1
    30    16    40    1
    31    18    19   ar
    32    18    23   ar
    33    19    20   ar
    34    19    41    1
    35    20    21   ar
    36    20    42    1
    37    21    22   ar
    38    21    24    1
    39    22    23   ar
    40    22    43    1
    41    23    44    1
    42    24    45    1
    43    26    46    1
    44    27    47    1
    45    28    48    1
    46    29    49    1
    47    30    50    1
    48     1    31    1
    49     1    27    1
    50     2    32    1
    51     2    28    1
    52     4    34    1
    53     4    30    1
