@<TRIPOS>MOLECULE
*****
 50 53 0 0 0
SMALL
GASTEIGER

@<TRIPOS>ATOM
     1 C         -0.332225   -1.328133   1.701909 C.3        1 UNL1     0.1889
     2 C         -0.462597   -0.975316   0.195767 C.3        1 UNL1     0.1342
     3 C         -1.903412   -0.962622   -0.337483 C.3        1 UNL1     0.1174
     4 C         -2.789883   -2.021704   0.322542 C.3        1 UNL1     0.1456
     5 C         -2.638321   -2.046929   1.854455 C.3        1 UNL1     0.2326
     6 O         -1.273467   -2.265166   2.204332 O.3        1 UNL1     -0.3076
     7 O         -3.213109   -0.899745   2.506304 O.3        1 UNL1     -0.4605
     8 C         -3.722706   -1.114976   3.774182 C.ar        1 UNL1     0.1310
     9 C         -4.539044   -2.187875   4.148055 C.ar        1 UNL1     0.0226
     10 C         -4.99188   -2.328031   5.465324 C.ar        1 UNL1     0.1343
     11 C         -4.619442   -1.410728   6.446998 C.ar        1 UNL1     0.1007
     12 C         -3.838297   -0.312728   6.076872 C.ar        1 UNL1     0.1389
     13 C         -3.385279   -0.17059   4.751729 C.ar        1 UNL1     0.0229
     14 C         -4.999964   -1.556317   7.871133 C.2        1 UNL1     0.1740
     15 C         -4.330908   -0.607934   8.822176 C.3        1 UNL1     0.0520
     16 C         -4.261652   0.763937   8.16557 C.3        1 UNL1     0.1322
     17 O         -3.503199   0.70687   6.937335 O.3        1 UNL1     -0.4828
     18 C         -5.620899   1.456361   8.040187 C.ar        1 UNL1     -0.0067
     19 C         -6.000109   2.018985   6.804117 C.ar        1 UNL1     -0.0516
     20 C         -7.21538   2.700513   6.667744 C.ar        1 UNL1     -0.0198
     21 C         -8.054961   2.832327   7.759328 C.ar        1 UNL1     0.1169
     22 C         -7.724538   2.260314   8.980991 C.ar        1 UNL1     -0.0198
     23 C         -6.51781   1.562835   9.11285 C.ar        1 UNL1     -0.0516
     24 O         -9.212663   3.535323   7.598322 O.3        1 UNL1     -0.5068
     25 O         -5.748728   -2.437926   8.284175 O.2        1 UNL1     -0.2917
     26 O         -5.786182   -3.396279   5.764515 O.3        1 UNL1     -0.5058
     27 O         -0.226773   -0.189853   2.542137 O.3        1 UNL1     -0.3648
     28 O         0.267809   -1.953924   -0.566821 O.3        1 UNL1     -0.3841
     29 O         -2.460656   0.351087   -0.261451 O.3        1 UNL1     -0.3863
     30 O         -2.442516   -3.322598   -0.199665 O.3        1 UNL1     -0.3829
     31 H         0.628359   -1.841134   1.821021 H        1 UNL1     0.0937
     32 H         0.0   0.0   0.0 H        1 UNL1     0.0671
     33 H         -1.866404   -1.202267   -1.40936 H        1 UNL1     0.0649
     34 H         -3.83997   -1.84323   0.065902 H        1 UNL1     0.0683
     35 H         -3.193183   -2.942684   2.160447 H        1 UNL1     0.1085
     36 H         -4.81759   -2.964679   3.444416 H        1 UNL1     0.0691
     37 H         -2.779246   0.693786   4.488917 H        1 UNL1     0.0691
     38 H         -3.328549   -0.998062   9.028579 H        1 UNL1     0.0385
     39 H         -4.890962   -0.588715   9.763318 H        1 UNL1     0.0385
     40 H         -3.666634   1.409209   8.825947 H        1 UNL1     0.0789
     41 H         -5.354438   1.937092   5.934604 H        1 UNL1     0.0623
     42 H         -7.491084   3.140236   5.71242 H        1 UNL1     0.0654
     43 H         -8.381613   2.344584   9.838348 H        1 UNL1     0.0654
     44 H         -6.296537   1.119635   10.079006 H        1 UNL1     0.0623
     45 H         -8.986645   4.442822   7.337404 H        1 UNL1     0.2921
     46 H         -5.382153   -3.908817   6.482482 H        1 UNL1     0.2922
     47 H         0.516296   0.363751   2.264231 H        1 UNL1     0.2126
     48 H         1.20073   -1.888211   -0.285624 H        1 UNL1     0.2101
     49 H         -2.021686   0.933332   -0.901834 H        1 UNL1     0.2100
     50 H         -2.675746   -3.337697   -1.151026 H        1 UNL1     0.2102
@<TRIPOS>BOND
     1     1     2    1
     2     1     6    1
     3     2     3    1
     4     3     4    1
     5     3    29    1
     6     3    33    1
     7     4     5    1
     8     5     6    1
     9     5     7    1
    10     5    35    1
    11     7     8    1
    12     8     9   ar
    13     8    13   ar
    14     9    10   ar
    15     9    36    1
    16    10    11   ar
    17    10    26    1
    18    11    12   ar
    19    11    14    1
    20    12    13   ar
    21    12    17    1
    22    13    37    1
    23    14    15    1
    24    14    25    2
    25    15    16    1
    26    15    38    1
    27    15    39    1
    28    16    17    1
    29    16    18    1
    30    16    40    1
    31    18    19   ar
    32    18    23   ar
    33    19    20   ar
    34    19    41    1
    35    20    21   ar
    36    20    42    1
    37    21    22   ar
    38    21    24    1
    39    22    23   ar
    40    22    43    1
    41    23    44    1
    42    24    45    1
    43    26    46    1
    44    27    47    1
    45    28    48    1
    46    29    49    1
    47    30    50    1
    48     1    31    1
    49     1    27    1
    50     2    32    1
    51     2    28    1
    52     4    34    1
    53     4    30    1
