@<TRIPOS>MOLECULE
*****
 50 53 0 0 0
SMALL
GASTEIGER

@<TRIPOS>ATOM
     1 C         -0.331617   -1.362601   1.674561 C.3        1 UNL1     0.1889
     2 C         -0.463366   -0.978682   0.176165 C.3        1 UNL1     0.1342
     3 C         -1.904783   -0.953561   -0.355016 C.3        1 UNL1     0.1174
     4 C         -2.791572   -2.025139   0.28408 C.3        1 UNL1     0.1456
     5 C         -2.638268   -2.082088   1.814968 C.3        1 UNL1     0.2326
     6 O         -1.273234   -2.308852   2.158669 O.3        1 UNL1     -0.3076
     7 O         -3.211131   -0.948012   2.491 O.3        1 UNL1     -0.4605
     8 C         -3.730102   -1.191325   3.749966 C.ar        1 UNL1     0.1310
     9 C         -4.554585   -2.268517   4.092288 C.ar        1 UNL1     0.0226
     10 C         -5.016717   -2.438297   5.402827 C.ar        1 UNL1     0.1343
     11 C         -4.645761   -1.547302   6.408988 C.ar        1 UNL1     0.1007
     12 C         -3.856361   -0.444914   6.070801 C.ar        1 UNL1     0.1389
     13 C         -3.393986   -0.272962   4.752441 C.ar        1 UNL1     0.0229
     14 C         -5.036306   -1.725521   7.826686 C.2        1 UNL1     0.1740
     15 C         -4.368378   -0.804343   8.804875 C.3        1 UNL1     0.0520
     16 C         -4.287512   0.582748   8.182463 C.3        1 UNL1     0.1322
     17 O         -3.521409   0.551508   6.958053 O.3        1 UNL1     -0.4828
     18 C         -5.642189   1.285507   8.065397 C.ar        1 UNL1     -0.0067
     19 C         -6.002837   1.895575   6.846396 C.ar        1 UNL1     -0.0516
     20 C         -7.213452   2.587205   6.719811 C.ar        1 UNL1     -0.0198
     21 C         -8.066779   2.681985   7.804558 C.ar        1 UNL1     0.1169
     22 C         -7.754761   2.063294   9.00818 C.ar        1 UNL1     -0.0198
     23 C         -6.552694   1.355931   9.129547 C.ar        1 UNL1     -0.0516
     24 O         -9.219419   3.395727   7.654911 O.3        1 UNL1     -0.5068
     25 O         -5.792447   -2.612813   8.213273 O.2        1 UNL1     -0.2917
     26 O         -5.818654   -3.509138   5.670746 O.3        1 UNL1     -0.5058
     27 O         -0.224032   -0.241988   2.537949 O.3        1 UNL1     -0.3648
     28 O         0.265158   -1.942091   -0.60729 O.3        1 UNL1     -0.3841
     29 O         -2.460596   0.358856   -0.251267 O.3        1 UNL1     -0.3863
     30 O         -2.446137   -3.315338   -0.265238 O.3        1 UNL1     -0.3829
     31 H         0.62858   -1.878906   1.781945 H        1 UNL1     0.0937
     32 H         0.0   0.0   0.0 H        1 UNL1     0.0671
     33 H         -1.869257   -1.171098   -1.431647 H        1 UNL1     0.0649
     34 H         -3.841773   -1.840366   0.032408 H        1 UNL1     0.0683
     35 H         -3.193691   -2.983406   2.103084 H        1 UNL1     0.1085
     36 H         -4.832707   -3.026363   3.368107 H        1 UNL1     0.0691
     37 H         -2.781638   0.594221   4.514706 H        1 UNL1     0.0691
     38 H         -3.369484   -1.204912   9.008055 H        1 UNL1     0.0385
     39 H         -4.934426   -0.805024   9.742621 H        1 UNL1     0.0385
     40 H         -3.693353   1.208415   8.862195 H        1 UNL1     0.0789
     41 H         -5.346122   1.843269   5.982891 H        1 UNL1     0.0623
     42 H         -7.474793   3.063513   5.778088 H        1 UNL1     0.0654
     43 H         -8.42271   2.11848   9.859478 H        1 UNL1     0.0654
     44 H         -6.345936   0.875989   10.081257 H        1 UNL1     0.0623
     45 H         -8.986048   4.318115   7.461379 H        1 UNL1     0.2921
     46 H         -5.422828   -4.04042   6.3796 H        1 UNL1     0.2922
     47 H         0.506414   0.32728   2.258231 H        1 UNL1     0.2126
     48 H         1.204818   -1.853466   -0.356456 H        1 UNL1     0.2101
     49 H         -2.027627   0.951729   -0.885959 H        1 UNL1     0.2100
     50 H         -2.6857   -3.312539   -1.21514 H        1 UNL1     0.2102
@<TRIPOS>BOND
     1     1     2    1
     2     1     6    1
     3     2     3    1
     4     3     4    1
     5     3    29    1
     6     3    33    1
     7     4     5    1
     8     5     6    1
     9     5     7    1
    10     5    35    1
    11     7     8    1
    12     8     9   ar
    13     8    13   ar
    14     9    10   ar
    15     9    36    1
    16    10    11   ar
    17    10    26    1
    18    11    12   ar
    19    11    14    1
    20    12    13   ar
    21    12    17    1
    22    13    37    1
    23    14    15    1
    24    14    25    2
    25    15    16    1
    26    15    38    1
    27    15    39    1
    28    16    17    1
    29    16    18    1
    30    16    40    1
    31    18    19   ar
    32    18    23   ar
    33    19    20   ar
    34    19    41    1
    35    20    21   ar
    36    20    42    1
    37    21    22   ar
    38    21    24    1
    39    22    23   ar
    40    22    43    1
    41    23    44    1
    42    24    45    1
    43    26    46    1
    44    27    47    1
    45    28    48    1
    46    29    49    1
    47    30    50    1
    48     1    31    1
    49     1    27    1
    50     2    32    1
    51     2    28    1
    52     4    34    1
    53     4    30    1
