@<TRIPOS>MOLECULE
*****
 50 53 0 0 0
SMALL
GASTEIGER

@<TRIPOS>ATOM
     1 C         -0.367716   -1.396734   1.638512 C.3        1 UNL1     0.1889
     2 C         -0.486299   -0.971877   0.150099 C.3        1 UNL1     0.1342
     3 C         -1.925229   -0.899946   -0.383541 C.3        1 UNL1     0.1174
     4 C         -2.838301   -1.966656   0.226006 C.3        1 UNL1     0.1456
     5 C         -2.690727   -2.066061   1.755288 C.3        1 UNL1     0.2326
     6 O         -1.33227   -2.332981   2.096194 O.3        1 UNL1     -0.3076
     7 O         -3.239234   -0.936614   2.458716 O.3        1 UNL1     -0.4605
     8 C         -3.767272   -1.199819   3.709887 C.ar        1 UNL1     0.1310
     9 C         -4.608984   -2.271968   4.025031 C.ar        1 UNL1     0.0226
     10 C         -5.079338   -2.463638   5.329613 C.ar        1 UNL1     0.1343
     11 C         -4.699783   -1.60053   6.356659 C.ar        1 UNL1     0.1007
     12 C         -3.892797   -0.502767   6.04606 C.ar        1 UNL1     0.1389
     13 C         -3.422135   -0.308758   4.733708 C.ar        1 UNL1     0.0229
     14 C         -5.099154   -1.804046   7.76848 C.2        1 UNL1     0.1740
     15 C         -4.422096   -0.914541   8.769439 C.3        1 UNL1     0.0520
     16 C         -4.318127   0.484537   8.17806 C.3        1 UNL1     0.1322
     17 O         -3.54717   0.468875   6.956401 O.3        1 UNL1     -0.4828
     18 C         -5.66181   1.209638   8.07096 C.ar        1 UNL1     -0.0067
     19 C         -5.759541   2.373767   7.281362 C.ar        1 UNL1     -0.0516
     20 C         -6.961122   3.08756   7.199706 C.ar        1 UNL1     -0.0198
     21 C         -8.067577   2.652643   7.907118 C.ar        1 UNL1     0.1169
     22 C         -8.011837   1.491233   8.666632 C.ar        1 UNL1     -0.0198
     23 C         -6.815571   0.767013   8.733767 C.ar        1 UNL1     -0.0516
     24 O         -9.209743   3.394541   7.833336 O.3        1 UNL1     -0.5068
     25 O         -5.86994   -2.688344   8.132338 O.2        1 UNL1     -0.2917
     26 O         -5.898086   -3.528137   5.570604 O.3        1 UNL1     -0.5058
     27 O         -0.236805   -0.301235   2.530437 O.3        1 UNL1     -0.3648
     28 O         0.222068   -1.931621   -0.656011 O.3        1 UNL1     -0.3841
     29 O         -2.450944   0.421901   -0.247622 O.3        1 UNL1     -0.3863
     30 O         -2.521121   -3.250101   -0.355247 O.3        1 UNL1     -0.3829
     31 H         0.580016   -1.937656   1.734877 H        1 UNL1     0.0937
     32 H         0.0   0.0   0.0 H        1 UNL1     0.0671
     33 H         -1.891648   -1.090785   -1.465286 H        1 UNL1     0.0649
     34 H         -3.88324   -1.751319   -0.023257 H        1 UNL1     0.0683
     35 H         -3.267594   -2.961341   2.019065 H        1 UNL1     0.1085
     36 H         -4.895005   -3.009537   3.283205 H        1 UNL1     0.0691
     37 H         -2.796078   0.554294   4.517633 H        1 UNL1     0.0691
     38 H         -3.430097   -1.334191   8.967831 H        1 UNL1     0.0385
     39 H         -4.992225   -0.927449   9.704621 H        1 UNL1     0.0385
     40 H         -3.71785   1.08628   8.873829 H        1 UNL1     0.0789
     41 H         -4.902786   2.740868   6.723815 H        1 UNL1     0.0623
     42 H         -7.020511   3.990393   6.596899 H        1 UNL1     0.0654
     43 H         -8.876578   1.133371   9.212588 H        1 UNL1     0.0654
     44 H         -6.810858   -0.141536   9.328209 H        1 UNL1     0.0623
     45 H         -9.041306   4.258461   8.2432 H        1 UNL1     0.2921
     46 H         -5.52439   -4.068601   6.28451 H        1 UNL1     0.2922
     47 H         0.507363   0.257933   2.266987 H        1 UNL1     0.2126
     48 H         1.174096   -1.778114   -0.501701 H        1 UNL1     0.2101
     49 H         -2.136535   0.978775   -0.977576 H        1 UNL1     0.2100
     50 H         -2.778788   -3.22515   -1.300074 H        1 UNL1     0.2102
@<TRIPOS>BOND
     1     1     2    1
     2     1     6    1
     3     2     3    1
     4     3     4    1
     5     3    29    1
     6     3    33    1
     7     4     5    1
     8     5     6    1
     9     5     7    1
    10     5    35    1
    11     7     8    1
    12     8     9   ar
    13     8    13   ar
    14     9    10   ar
    15     9    36    1
    16    10    11   ar
    17    10    26    1
    18    11    12   ar
    19    11    14    1
    20    12    13   ar
    21    12    17    1
    22    13    37    1
    23    14    15    1
    24    14    25    2
    25    15    16    1
    26    15    38    1
    27    15    39    1
    28    16    17    1
    29    16    18    1
    30    16    40    1
    31    18    19   ar
    32    18    23   ar
    33    19    20   ar
    34    19    41    1
    35    20    21   ar
    36    20    42    1
    37    21    22   ar
    38    21    24    1
    39    22    23   ar
    40    22    43    1
    41    23    44    1
    42    24    45    1
    43    26    46    1
    44    27    47    1
    45    28    48    1
    46    29    49    1
    47    30    50    1
    48     1    31    1
    49     1    27    1
    50     2    32    1
    51     2    28    1
    52     4    34    1
    53     4    30    1
