@<TRIPOS>MOLECULE
*****
 50 53 0 0 0
SMALL
GASTEIGER

@<TRIPOS>ATOM
     1 C         2.099002   0.204782   -0.568383 C.3        1 UNL1     0.1889
     2 C         0.985361   -0.246847   0.414357 C.3        1 UNL1     0.1342
     3 C         1.097727   0.346221   1.827194 C.3        1 UNL1     0.1174
     4 C         2.548321   0.528619   2.280655 C.3        1 UNL1     0.1456
     5 C         3.425704   1.188157   1.201038 C.3        1 UNL1     0.2326
     6 O         3.38185   0.418163   0.001849 O.3        1 UNL1     -0.3076
     7 O         3.126636   2.580184   0.990941 O.3        1 UNL1     -0.4605
     8 C         1.788968   2.928043   1.047193 C.ar        1 UNL1     0.1310
     9 C         1.214338   3.788491   1.988856 C.ar        1 UNL1     0.0226
     10 C         -0.151569   4.09321   1.952162 C.ar        1 UNL1     0.1343
     11 C         -0.972238   3.563068   0.957529 C.ar        1 UNL1     0.1007
     12 C         -0.418075   2.670287   0.036318 C.ar        1 UNL1     0.1389
     13 C         0.954834   2.361979   0.075024 C.ar        1 UNL1     0.0229
     14 C         -2.404099   3.917176   0.821387 C.2        1 UNL1     0.1740
     15 C         -3.076504   3.433236   -0.429701 C.3        1 UNL1     0.0520
     16 C         -2.586342   2.022442   -0.725269 C.3        1 UNL1     0.1322
     17 O         -1.154588   2.006754   -0.917379 O.3        1 UNL1     -0.4828
     18 C         -3.106   0.970925   0.258087 C.ar        1 UNL1     -0.0067
     19 C         -4.132479   1.315004   1.161506 C.ar        1 UNL1     -0.0516
     20 C         -4.597822   0.391822   2.105516 C.ar        1 UNL1     -0.0198
     21 C         -4.041037   -0.873382   2.160996 C.ar        1 UNL1     0.1169
     22 C         -3.052068   -1.252708   1.262726 C.ar        1 UNL1     -0.0198
     23 C         -2.59939   -0.335748   0.306523 C.ar        1 UNL1     -0.0516
     24 O         -4.493424   -1.733054   3.118445 O.3        1 UNL1     -0.5068
     25 O         -3.004424   4.626658   1.624338 O.2        1 UNL1     -0.2917
     26 O         -0.649958   4.938451   2.900192 O.3        1 UNL1     -0.5058
     27 O         1.711642   1.283311   -1.404751 O.3        1 UNL1     -0.3648
     28 O         1.045781   -1.679321   0.545024 O.3        1 UNL1     -0.3841
     29 O         0.32881   1.545812   1.93618 O.3        1 UNL1     -0.3863
     30 O         3.10784   -0.761673   2.608945 O.3        1 UNL1     -0.3829
     31 H         2.261927   -0.62835   -1.260789 H        1 UNL1     0.0937
     32 H         0.0   0.0   0.0 H        1 UNL1     0.0671
     33 H         0.632932   -0.362806   2.526455 H        1 UNL1     0.0649
     34 H         2.581565   1.133997   3.193241 H        1 UNL1     0.0683
     35 H         4.444593   1.101286   1.598779 H        1 UNL1     0.1085
     36 H         1.809242   4.276655   2.752993 H        1 UNL1     0.0691
     37 H         1.361557   1.66318   -0.652814 H        1 UNL1     0.0691
     38 H         -2.807902   4.122065   -1.23772 H        1 UNL1     0.0385
     39 H         -4.162434   3.473989   -0.292319 H        1 UNL1     0.0385
     40 H         -2.997619   1.734925   -1.702359 H        1 UNL1     0.0789
     41 H         -4.579536   2.304697   1.144274 H        1 UNL1     0.0623
     42 H         -5.381575   0.673025   2.804563 H        1 UNL1     0.0654
     43 H         -2.619648   -2.245838   1.287534 H        1 UNL1     0.0654
     44 H         -1.832993   -0.669425   -0.386398 H        1 UNL1     0.0623
     45 H         -3.928357   -2.522605   3.113422 H        1 UNL1     0.2921
     46 H         0.029603   5.108355   3.571565 H        1 UNL1     0.2922
     47 H         1.197435   1.929648   -0.901065 H        1 UNL1     0.2126
     48 H         1.817024   -1.876279   1.110819 H        1 UNL1     0.2101
     49 H         0.072749   1.855082   1.052676 H        1 UNL1     0.2100
     50 H         3.531242   -0.691479   3.489579 H        1 UNL1     0.2102
@<TRIPOS>BOND
     1     1     2    1
     2     1     6    1
     3     2     3    1
     4     3     4    1
     5     3    29    1
     6     3    33    1
     7     4     5    1
     8     5     6    1
     9     5     7    1
    10     5    35    1
    11     7     8    1
    12     8     9   ar
    13     8    13   ar
    14     9    10   ar
    15     9    36    1
    16    10    11   ar
    17    10    26    1
    18    11    12   ar
    19    11    14    1
    20    12    13   ar
    21    12    17    1
    22    13    37    1
    23    14    15    1
    24    14    25    2
    25    15    16    1
    26    15    38    1
    27    15    39    1
    28    16    17    1
    29    16    18    1
    30    16    40    1
    31    18    19   ar
    32    18    23   ar
    33    19    20   ar
    34    19    41    1
    35    20    21   ar
    36    20    42    1
    37    21    22   ar
    38    21    24    1
    39    22    23   ar
    40    22    43    1
    41    23    44    1
    42    24    45    1
    43    26    46    1
    44    27    47    1
    45    28    48    1
    46    29    49    1
    47    30    50    1
    48     1    31    1
    49     1    27    1
    50     2    32    1
    51     2    28    1
    52     4    34    1
    53     4    30    1
