@<TRIPOS>MOLECULE
*****
 50 53 0 0 0
SMALL
GASTEIGER

@<TRIPOS>ATOM
     1 C         -0.335236   -1.330369   1.69957 C.3        1 UNL1     0.1889
     2 C         -0.464016   -0.975017   0.193887 C.3        1 UNL1     0.1342
     3 C         -1.904413   -0.959603   -0.34042 C.3        1 UNL1     0.1174
     4 C         -2.792761   -2.018561   0.317276 C.3        1 UNL1     0.1456
     5 C         -2.642382   -2.04639   1.84926 C.3        1 UNL1     0.2326
     6 O         -1.278077   -2.266959   2.199816 O.3        1 UNL1     -0.3076
     7 O         -3.216161   -0.899481   2.502481 O.3        1 UNL1     -0.4605
     8 C         -3.727415   -1.116142   3.769448 C.ar        1 UNL1     0.1310
     9 C         -4.6338   -2.123906   4.116114 C.ar        1 UNL1     0.0226
     10 C         -5.081045   -2.272928   5.434319 C.ar        1 UNL1     0.1343
     11 C         -4.613941   -1.431838   6.443389 C.ar        1 UNL1     0.1007
     12 C         -3.740253   -0.396037   6.101964 C.ar        1 UNL1     0.1389
     13 C         -3.292745   -0.244756   4.775962 C.ar        1 UNL1     0.0229
     14 C         -4.988342   -1.596965   7.867015 C.2        1 UNL1     0.1740
     15 C         -4.223427   -0.75076   8.841895 C.3        1 UNL1     0.0520
     16 C         -4.037096   0.633395   8.235799 C.3        1 UNL1     0.1322
     17 O         -3.302483   0.554916   6.994327 O.3        1 UNL1     -0.4828
     18 C         -5.32871   1.450958   8.15802 C.ar        1 UNL1     -0.0067
     19 C         -5.668852   2.095274   6.950803 C.ar        1 UNL1     -0.0516
     20 C         -6.818221   2.889358   6.859466 C.ar        1 UNL1     -0.0198
     21 C         -7.629866   3.052619   7.967801 C.ar        1 UNL1     0.1169
     22 C         -7.339324   2.403976   9.160985 C.ar        1 UNL1     -0.0198
     23 C         -6.19997   1.594979   9.247313 C.ar        1 UNL1     -0.0516
     24 O         -8.720227   3.863832   7.851838 O.3        1 UNL1     -0.5068
     25 O         -5.80944   -2.422035   8.258859 O.2        1 UNL1     -0.2917
     26 O         -5.965998   -3.275192   5.706186 O.3        1 UNL1     -0.5058
     27 O         -0.228929   -0.193548   2.541665 O.3        1 UNL1     -0.3648
     28 O         0.265683   -1.953379   -0.56969 O.3        1 UNL1     -0.3841
     29 O         -2.459998   0.354712   -0.262741 O.3        1 UNL1     -0.3863
     30 O         -2.446701   -3.319086   -0.206714 O.3        1 UNL1     -0.3829
     31 H         0.624588   -1.844811   1.818595 H        1 UNL1     0.0937
     32 H         0.0   0.0   0.0 H        1 UNL1     0.0671
     33 H         -1.866914   -1.197613   -1.412644 H        1 UNL1     0.0649
     34 H         -3.842422   -1.838312   0.060132 H        1 UNL1     0.0683
     35 H         -3.198642   -2.941899   2.153429 H        1 UNL1     0.1085
     36 H         -4.991073   -2.844444   3.388582 H        1 UNL1     0.0691
     37 H         -2.613464   0.570365   4.535863 H        1 UNL1     0.0691
     38 H         -3.258486   -1.238151   9.017585 H        1 UNL1     0.0385
     39 H         -4.767548   -0.716937   9.79193 H        1 UNL1     0.0385
     40 H         -3.377288   1.195911   8.910149 H        1 UNL1     0.0789
     41 H         -5.043225   1.990316   6.0692 H        1 UNL1     0.0623
     42 H         -7.063359   3.390616   5.926375 H        1 UNL1     0.0654
     43 H         -7.976226   2.512827   10.030707 H        1 UNL1     0.0654
     44 H         -6.009229   1.094768   10.191904 H        1 UNL1     0.0623
     45 H         -8.414829   4.758122   7.628915 H        1 UNL1     0.2921
     46 H         -5.601708   -3.849557   6.398146 H        1 UNL1     0.2922
     47 H         0.515071   0.359519   2.265186 H        1 UNL1     0.2126
     48 H         1.198478   -1.889327   -0.287692 H        1 UNL1     0.2101
     49 H         -2.019907   0.937345   -0.902 H        1 UNL1     0.2100
     50 H         -2.679236   -3.332386   -1.158272 H        1 UNL1     0.2102
@<TRIPOS>BOND
     1     1     2    1
     2     1     6    1
     3     2     3    1
     4     3     4    1
     5     3    29    1
     6     3    33    1
     7     4     5    1
     8     5     6    1
     9     5     7    1
    10     5    35    1
    11     7     8    1
    12     8     9   ar
    13     8    13   ar
    14     9    10   ar
    15     9    36    1
    16    10    11   ar
    17    10    26    1
    18    11    12   ar
    19    11    14    1
    20    12    13   ar
    21    12    17    1
    22    13    37    1
    23    14    15    1
    24    14    25    2
    25    15    16    1
    26    15    38    1
    27    15    39    1
    28    16    17    1
    29    16    18    1
    30    16    40    1
    31    18    19   ar
    32    18    23   ar
    33    19    20   ar
    34    19    41    1
    35    20    21   ar
    36    20    42    1
    37    21    22   ar
    38    21    24    1
    39    22    23   ar
    40    22    43    1
    41    23    44    1
    42    24    45    1
    43    26    46    1
    44    27    47    1
    45    28    48    1
    46    29    49    1
    47    30    50    1
    48     1    31    1
    49     1    27    1
    50     2    32    1
    51     2    28    1
    52     4    34    1
    53     4    30    1
