@<TRIPOS>MOLECULE
*****
 50 53 0 0 0
SMALL
GASTEIGER

@<TRIPOS>ATOM
     1 C         -0.297332   -1.312744   1.720204 C.3        1 UNL1     0.1889
     2 C         -0.444007   -0.980803   0.210819 C.3        1 UNL1     0.1342
     3 C         -1.888368   -0.999944   -0.312554 C.3        1 UNL1     0.1174
     4 C         -2.751581   -2.066226   0.366432 C.3        1 UNL1     0.1456
     5 C         -2.589322   -2.069963   1.897452 C.3        1 UNL1     0.2326
     6 O         -1.218516   -2.259902   2.240498 O.3        1 UNL1     -0.3076
     7 O         -3.179857   -0.925117   2.539259 O.3        1 UNL1     -0.4605
     8 C         -3.677486   -1.133775   3.812976 C.ar        1 UNL1     0.1310
     9 C         -4.472561   -2.216082   4.205108 C.ar        1 UNL1     0.0226
     10 C         -4.914432   -2.348098   5.526934 C.ar        1 UNL1     0.1343
     11 C         -4.551779   -1.412621   6.495029 C.ar        1 UNL1     0.1007
     12 C         -3.792306   -0.305785   6.106574 C.ar        1 UNL1     0.1389
     13 C         -3.350338   -0.171881   4.77685 C.ar        1 UNL1     0.0229
     14 C         -4.92057   -1.547515   7.923297 C.2        1 UNL1     0.1740
     15 C         -4.262089   -0.576184   8.858427 C.3        1 UNL1     0.0520
     16 C         -4.220997   0.788618   8.18494 C.3        1 UNL1     0.1322
     17 O         -3.469549   0.729844   6.952486 O.3        1 UNL1     -0.4828
     18 C         -5.592898   1.455748   8.060243 C.ar        1 UNL1     -0.0067
     19 C         -5.988641   1.999146   6.820759 C.ar        1 UNL1     -0.0516
     20 C         -7.216458   2.657802   6.684378 C.ar        1 UNL1     -0.0198
     21 C         -8.052323   2.785823   7.77926 C.ar        1 UNL1     0.1169
     22 C         -7.705271   2.232036   9.004705 C.ar        1 UNL1     -0.0198
     23 C         -6.485739   1.557236   9.136779 C.ar        1 UNL1     -0.0516
     24 O         -9.223093   3.466706   7.617714 O.3        1 UNL1     -0.5068
     25 O         -5.651169   -2.436926   8.351849 O.2        1 UNL1     -0.2917
     26 O         -5.688034   -3.426278   5.84419 O.3        1 UNL1     -0.5058
     27 O         -0.206327   -0.16255   2.545769 O.3        1 UNL1     -0.3648
     28 O         0.298404   -1.955742   -0.544845 O.3        1 UNL1     -0.3841
     29 O         -2.468162   0.30462   -0.248656 O.3        1 UNL1     -0.3863
     30 O         -2.384847   -3.367145   -0.1423 O.3        1 UNL1     -0.3829
     31 H         0.672924   -1.807309   1.838894 H        1 UNL1     0.0937
     32 H         0.0   0.0   0.0 H        1 UNL1     0.0671
     33 H         -1.854335   -1.252057   -1.381667 H        1 UNL1     0.0649
     34 H         -3.806351   -1.909372   0.114918 H        1 UNL1     0.0683
     35 H         -3.126241   -2.971487   2.218156 H        1 UNL1     0.1085
     36 H         -4.742009   -3.006087   3.512713 H        1 UNL1     0.0691
     37 H         -2.761181   0.699644   4.499666 H        1 UNL1     0.0691
     38 H         -3.251771   -0.946304   9.062866 H        1 UNL1     0.0385
     39 H         -4.816352   -0.555285   9.802956 H        1 UNL1     0.0385
     40 H         -3.633113   1.452094   8.833563 H        1 UNL1     0.0789
     41 H         -5.346333   1.919862   5.948517 H        1 UNL1     0.0623
     42 H         -7.505029   3.08297   5.72627 H        1 UNL1     0.0654
     43 H         -8.359088   2.313372   9.864831 H        1 UNL1     0.0654
     44 H         -6.25147   1.127744   10.106057 H        1 UNL1     0.0623
     45 H         -9.014361   4.37693   7.351931 H        1 UNL1     0.2921
     46 H         -5.271314   -3.922098   6.566629 H        1 UNL1     0.2922
     47 H         0.523256   0.40191   2.254302 H        1 UNL1     0.2126
     48 H         1.234342   -1.858648   -0.283453 H        1 UNL1     0.2101
     49 H         -2.04395   0.886518   -0.899221 H        1 UNL1     0.2100
     50 H         -2.629328   -3.400024   -1.090382 H        1 UNL1     0.2102
@<TRIPOS>BOND
     1     1     2    1
     2     1     6    1
     3     2     3    1
     4     3     4    1
     5     3    29    1
     6     3    33    1
     7     4     5    1
     8     5     6    1
     9     5     7    1
    10     5    35    1
    11     7     8    1
    12     8     9   ar
    13     8    13   ar
    14     9    10   ar
    15     9    36    1
    16    10    11   ar
    17    10    26    1
    18    11    12   ar
    19    11    14    1
    20    12    13   ar
    21    12    17    1
    22    13    37    1
    23    14    15    1
    24    14    25    2
    25    15    16    1
    26    15    38    1
    27    15    39    1
    28    16    17    1
    29    16    18    1
    30    16    40    1
    31    18    19   ar
    32    18    23   ar
    33    19    20   ar
    34    19    41    1
    35    20    21   ar
    36    20    42    1
    37    21    22   ar
    38    21    24    1
    39    22    23   ar
    40    22    43    1
    41    23    44    1
    42    24    45    1
    43    26    46    1
    44    27    47    1
    45    28    48    1
    46    29    49    1
    47    30    50    1
    48     1    31    1
    49     1    27    1
    50     2    32    1
    51     2    28    1
    52     4    34    1
    53     4    30    1
