@<TRIPOS>MOLECULE
*****
 50 53 0 0 0
SMALL
GASTEIGER

@<TRIPOS>ATOM
     1 C         0.031236   -0.604346   2.098713 C.3        1 UNL1     0.1889
     2 C         -0.720046   -0.182873   0.80725 C.3        1 UNL1     0.1342
     3 C         -1.621601   1.051304   0.963682 C.3        1 UNL1     0.1174
     4 C         -2.279628   1.134586   2.34324 C.3        1 UNL1     0.1456
     5 C         -1.283492   0.87797   3.488764 C.3        1 UNL1     0.2326
     6 O         -0.664666   -0.395216   3.318704 O.3        1 UNL1     -0.3076
     7 O         -0.337586   1.946397   3.675968 O.3        1 UNL1     -0.4605
     8 C         0.770852   1.646508   4.447304 C.ar        1 UNL1     0.1310
     9 C         1.269064   2.434039   5.490798 C.ar        1 UNL1     0.0226
     10 C         2.391256   2.034947   6.226538 C.ar        1 UNL1     0.1343
     11 C         3.028812   0.82585   5.95186 C.ar        1 UNL1     0.1007
     12 C         2.565396   0.050608   4.885544 C.ar        1 UNL1     0.1389
     13 C         1.438626   0.453392   4.144204 C.ar        1 UNL1     0.0229
     14 C         4.166568   0.315553   6.751398 C.2        1 UNL1     0.1740
     15 C         4.583667   -1.096027   6.459814 C.3        1 UNL1     0.0520
     16 C         4.52264   -1.315244   4.954431 C.3        1 UNL1     0.1322
     17 O         3.182263   -1.102637   4.459198 O.3        1 UNL1     -0.4828
     18 C         5.611255   -0.569795   4.178577 C.ar        1 UNL1     -0.0067
     19 C         5.297052   0.648549   3.54208 C.ar        1 UNL1     -0.0516
     20 C         6.256274   1.331786   2.785083 C.ar        1 UNL1     -0.0198
     21 C         7.528257   0.804577   2.651153 C.ar        1 UNL1     0.1169
     22 C         7.877519   -0.376189   3.293528 C.ar        1 UNL1     -0.0198
     23 C         6.923847   -1.050174   4.065738 C.ar        1 UNL1     -0.0516
     24 O         8.42476   1.478654   1.87507 O.3        1 UNL1     -0.5068
     25 O         4.69892   0.955193   7.654696 O.2        1 UNL1     -0.2917
     26 O         2.827442   2.848989   7.230859 O.3        1 UNL1     -0.5058
     27 O         1.361432   -0.11537   2.164053 O.3        1 UNL1     -0.3648
     28 O         -1.558914   -1.27607   0.390204 O.3        1 UNL1     -0.3841
     29 O         -0.914579   2.243191   0.614885 O.3        1 UNL1     -0.3863
     30 O         -3.339659   0.156947   2.422283 O.3        1 UNL1     -0.3829
     31 H         0.14602   -1.692827   2.05274 H        1 UNL1     0.0937
     32 H         0.0   0.0   0.0 H        1 UNL1     0.0671
     33 H         -2.434192   0.968358   0.228471 H        1 UNL1     0.0649
     34 H         -2.740832   2.119127   2.478781 H        1 UNL1     0.0683
     35 H         -1.918566   0.807339   4.380713 H        1 UNL1     0.1085
     36 H         0.784783   3.357175   5.789818 H        1 UNL1     0.0691
     37 H         1.098403   -0.167426   3.318174 H        1 UNL1     0.0691
     38 H         3.889674   -1.761476   6.984293 H        1 UNL1     0.0385
     39 H         5.588488   -1.263799   6.862263 H        1 UNL1     0.0385
     40 H         4.715919   -2.381443   4.774479 H        1 UNL1     0.0789
     41 H         4.303094   1.078582   3.624363 H        1 UNL1     0.0623
     42 H         5.99831   2.264344   2.2893 H        1 UNL1     0.0654
     43 H         8.875097   -0.790169   3.207683 H        1 UNL1     0.0654
     44 H         7.234325   -1.96446   4.562256 H        1 UNL1     0.0623
     45 H         7.99819   2.285705   1.544277 H        1 UNL1     0.2921
     46 H         2.578055   3.766049   7.035363 H        1 UNL1     0.2922
     47 H         1.990282   -0.849478   2.125434 H        1 UNL1     0.2126
     48 H         -2.447989   -0.902977   0.235031 H        1 UNL1     0.2101
     49 H         -1.464611   3.020241   0.803173 H        1 UNL1     0.2100
     50 H         -3.760322   0.238894   3.303214 H        1 UNL1     0.2102
@<TRIPOS>BOND
     1     1     2    1
     2     1     6    1
     3     2     3    1
     4     3     4    1
     5     3    29    1
     6     3    33    1
     7     4     5    1
     8     5     6    1
     9     5     7    1
    10     5    35    1
    11     7     8    1
    12     8     9   ar
    13     8    13   ar
    14     9    10   ar
    15     9    36    1
    16    10    11   ar
    17    10    26    1
    18    11    12   ar
    19    11    14    1
    20    12    13   ar
    21    12    17    1
    22    13    37    1
    23    14    15    1
    24    14    25    2
    25    15    16    1
    26    15    38    1
    27    15    39    1
    28    16    17    1
    29    16    18    1
    30    16    40    1
    31    18    19   ar
    32    18    23   ar
    33    19    20   ar
    34    19    41    1
    35    20    21   ar
    36    20    42    1
    37    21    22   ar
    38    21    24    1
    39    22    23   ar
    40    22    43    1
    41    23    44    1
    42    24    45    1
    43    26    46    1
    44    27    47    1
    45    28    48    1
    46    29    49    1
    47    30    50    1
    48     1    31    1
    49     1    27    1
    50     2    32    1
    51     2    28    1
    52     4    34    1
    53     4    30    1
