@<TRIPOS>MOLECULE
*****
 50 53 0 0 0
SMALL
GASTEIGER

@<TRIPOS>ATOM
     1 C         -0.330494   -1.327382   1.702832 C.3        1 UNL1     0.1889
     2 C         -0.461764   -0.975556   0.196536 C.3        1 UNL1     0.1342
     3 C         -1.902811   -0.964285   -0.336119 C.3        1 UNL1     0.1174
     4 C         -2.788192   -2.023658   0.324901 C.3        1 UNL1     0.1456
     5 C         -2.635972   -2.047861   1.856765 C.3        1 UNL1     0.2326
     6 O         -1.270805   -2.264841   2.206202 O.3        1 UNL1     -0.3076
     7 O         -3.21137   -0.900734   2.508176 O.3        1 UNL1     -0.4605
     8 C         -3.720273   -1.115608   3.776393 C.ar        1 UNL1     0.1310
     9 C         -4.53563   -2.188913   4.151241 C.ar        1 UNL1     0.0226
     10 C         -4.987809   -2.328638   5.468781 C.ar        1 UNL1     0.1343
     11 C         -4.615667   -1.410468   6.449758 C.ar        1 UNL1     0.1007
     12 C         -3.835522   -0.312087   6.078657 C.ar        1 UNL1     0.1389
     13 C         -3.383166   -0.170385   4.753241 C.ar        1 UNL1     0.0229
     14 C         -4.995484   -1.555508   7.874137 C.2        1 UNL1     0.1740
     15 C         -4.326761   -0.606048   8.824341 C.3        1 UNL1     0.0520
     16 C         -4.258834   0.765487   8.166895 C.3        1 UNL1     0.1322
     17 O         -3.50085   0.708277   6.938377 O.3        1 UNL1     -0.4828
     18 C         -5.618666   1.456791   8.04167 C.ar        1 UNL1     -0.0067
     19 C         -5.998823   2.018392   6.805426 C.ar        1 UNL1     -0.0516
     20 C         -7.214676   2.698904   6.669157 C.ar        1 UNL1     -0.0198
     21 C         -8.053903   2.830718   7.761013 C.ar        1 UNL1     0.1169
     22 C         -7.72253   2.259682   8.982876 C.ar        1 UNL1     -0.0198
     23 C         -6.515211   1.563209   9.114645 C.ar        1 UNL1     -0.0516
     24 O         -9.212212   3.532728   7.600075 O.3        1 UNL1     -0.5068
     25 O         -5.743396   -2.437448   8.288012 O.2        1 UNL1     -0.2917
     26 O         -5.781164   -3.39732   5.768935 O.3        1 UNL1     -0.5058
     27 O         -0.225567   -0.188524   2.542344 O.3        1 UNL1     -0.3648
     28 O         0.269076   -1.954052   -0.565778 O.3        1 UNL1     -0.3841
     29 O         -2.461034   0.34904   -0.260631 O.3        1 UNL1     -0.3863
     30 O         -2.440042   -3.324593   -0.196682 O.3        1 UNL1     -0.3829
     31 H         0.630534   -1.839573   1.821846 H        1 UNL1     0.0937
     32 H         0.0   0.0   0.0 H        1 UNL1     0.0671
     33 H         -1.866066   -1.204535   -1.40787 H        1 UNL1     0.0649
     34 H         -3.838523   -1.846144   0.068594 H        1 UNL1     0.0683
     35 H         -3.190017   -2.943861   2.163518 H        1 UNL1     0.1085
     36 H         -4.813871   -2.966347   3.448177 H        1 UNL1     0.0691
     37 H         -2.777908   0.694302   4.489666 H        1 UNL1     0.0691
     38 H         -3.324016   -0.995284   9.030556 H        1 UNL1     0.0385
     39 H         -4.886438   -0.586704   9.765705 H        1 UNL1     0.0385
     40 H         -3.664038   1.411607   8.826642 H        1 UNL1     0.0789
     41 H         -5.353452   1.936481   5.935692 H        1 UNL1     0.0623
     42 H         -7.491116   3.13785   5.713689 H        1 UNL1     0.0654
     43 H         -8.379312   2.343953   9.840458 H        1 UNL1     0.0654
     44 H         -6.293195   1.120751   10.08097 H        1 UNL1     0.0623
     45 H         -8.987001   4.440246   7.338527 H        1 UNL1     0.2921
     46 H         -5.376527   -3.909025   6.487154 H        1 UNL1     0.2922
     47 H         0.517065   0.365398   2.263907 H        1 UNL1     0.2126
     48 H         1.202064   -1.887455   -0.285009 H        1 UNL1     0.2101
     49 H         -2.022779   0.931244   -0.901541 H        1 UNL1     0.2100
     50 H         -2.673657   -3.340434   -1.147937 H        1 UNL1     0.2102
@<TRIPOS>BOND
     1     1     2    1
     2     1     6    1
     3     2     3    1
     4     3     4    1
     5     3    29    1
     6     3    33    1
     7     4     5    1
     8     5     6    1
     9     5     7    1
    10     5    35    1
    11     7     8    1
    12     8     9   ar
    13     8    13   ar
    14     9    10   ar
    15     9    36    1
    16    10    11   ar
    17    10    26    1
    18    11    12   ar
    19    11    14    1
    20    12    13   ar
    21    12    17    1
    22    13    37    1
    23    14    15    1
    24    14    25    2
    25    15    16    1
    26    15    38    1
    27    15    39    1
    28    16    17    1
    29    16    18    1
    30    16    40    1
    31    18    19   ar
    32    18    23   ar
    33    19    20   ar
    34    19    41    1
    35    20    21   ar
    36    20    42    1
    37    21    22   ar
    38    21    24    1
    39    22    23   ar
    40    22    43    1
    41    23    44    1
    42    24    45    1
    43    26    46    1
    44    27    47    1
    45    28    48    1
    46    29    49    1
    47    30    50    1
    48     1    31    1
    49     1    27    1
    50     2    32    1
    51     2    28    1
    52     4    34    1
    53     4    30    1
