@<TRIPOS>MOLECULE
*****
 50 53 0 0 0
SMALL
GASTEIGER

@<TRIPOS>ATOM
     1 C         0.906484   -1.931402   -0.467737 C.3        1 UNL1     0.1889
     2 C         -0.261802   -0.912439   -0.549978 C.3        1 UNL1     0.1342
     3 C         -1.609656   -1.439224   -0.033981 C.3        1 UNL1     0.1174
     4 C         -1.815729   -2.927856   -0.324888 C.3        1 UNL1     0.1456
     5 C         -0.580297   -3.775182   0.03023 C.3        1 UNL1     0.2326
     6 O         0.559788   -3.292447   -0.676906 O.3        1 UNL1     -0.3076
     7 O         -0.357357   -3.897996   1.446752 O.3        1 UNL1     -0.4605
     8 C         -1.421093   -4.37973   2.188322 C.ar        1 UNL1     0.1310
     9 C         -2.671982   -3.764213   2.30544 C.ar        1 UNL1     0.0226
     10 C         -3.693863   -4.34118   3.068834 C.ar        1 UNL1     0.1343
     11 C         -3.497127   -5.560903   3.714908 C.ar        1 UNL1     0.1007
     12 C         -2.239141   -6.164626   3.638939 C.ar        1 UNL1     0.1389
     13 C         -1.210974   -5.582962   2.873451 C.ar        1 UNL1     0.0229
     14 C         -4.568067   -6.256636   4.465373 C.2        1 UNL1     0.1740
     15 C         -4.249593   -7.65572   4.904335 C.3        1 UNL1     0.0520
     16 C         -2.805041   -7.693206   5.383731 C.3        1 UNL1     0.1322
     17 O         -1.90256   -7.309747   4.322808 O.3        1 UNL1     -0.4828
     18 C         -2.575916   -6.959844   6.707516 C.ar        1 UNL1     -0.0067
     19 C         -3.416622   -5.883252   7.057339 C.ar        1 UNL1     -0.0516
     20 C         -3.205225   -5.160962   8.237835 C.ar        1 UNL1     -0.0198
     21 C         -2.154457   -5.499942   9.071386 C.ar        1 UNL1     0.1169
     22 C         -1.329823   -6.576243   8.77073 C.ar        1 UNL1     -0.0198
     23 C         -1.55227   -7.310329   7.599537 C.ar        1 UNL1     -0.0516
     24 O         -1.956541   -4.749924   10.193305 O.3        1 UNL1     -0.5068
     25 O         -5.680784   -5.774189   4.659257 O.2        1 UNL1     -0.2917
     26 O         -4.89027   -3.68954   3.14339 O.3        1 UNL1     -0.5058
     27 O         1.718399   -1.768839   0.684285 O.3        1 UNL1     -0.3648
     28 O         -0.446557   -0.540635   -1.928504 O.3        1 UNL1     -0.3841
     29 O         -1.785508   -1.115618   1.346775 O.3        1 UNL1     -0.3863
     30 O         -2.108769   -3.100125   -1.728505 O.3        1 UNL1     -0.3829
     31 H         1.577163   -1.706542   -1.304222 H        1 UNL1     0.0937
     32 H         0.0   0.0   0.0 H        1 UNL1     0.0671
     33 H         -2.406149   -0.898581   -0.564099 H        1 UNL1     0.0649
     34 H         -2.682468   -3.301196   0.231693 H        1 UNL1     0.0683
     35 H         -0.813011   -4.766449   -0.378565 H        1 UNL1     0.1085
     36 H         -2.905676   -2.843511   1.782165 H        1 UNL1     0.0691
     37 H         -0.240281   -6.07232   2.831289 H        1 UNL1     0.0691
     38 H         -4.396847   -8.314927   4.042193 H        1 UNL1     0.0385
     39 H         -4.953833   -7.955094   5.688045 H        1 UNL1     0.0385
     40 H         -2.558702   -8.74411   5.587296 H        1 UNL1     0.0789
     41 H         -4.24271   -5.591632   6.415321 H        1 UNL1     0.0623
     42 H         -3.853139   -4.325304   8.490611 H        1 UNL1     0.0654
     43 H         -0.513267   -6.85975   9.424007 H        1 UNL1     0.0654
     44 H         -0.895126   -8.151587   7.401312 H        1 UNL1     0.0623
     45 H         -2.796617   -4.324501   10.429958 H        1 UNL1     0.2921
     46 H         -4.734699   -2.743822   3.294475 H        1 UNL1     0.2922
     47 H         1.374033   -2.301787   1.414516 H        1 UNL1     0.2126
     48 H         0.202586   0.164072   -2.117536 H        1 UNL1     0.2101
     49 H         -1.548391   -1.87877   1.897383 H        1 UNL1     0.2100
     50 H         -2.57688   -2.297704   -2.03948 H        1 UNL1     0.2102
@<TRIPOS>BOND
     1     1     2    1
     2     1     6    1
     3     2     3    1
     4     3     4    1
     5     3    29    1
     6     3    33    1
     7     4     5    1
     8     5     6    1
     9     5     7    1
    10     5    35    1
    11     7     8    1
    12     8     9   ar
    13     8    13   ar
    14     9    10   ar
    15     9    36    1
    16    10    11   ar
    17    10    26    1
    18    11    12   ar
    19    11    14    1
    20    12    13   ar
    21    12    17    1
    22    13    37    1
    23    14    15    1
    24    14    25    2
    25    15    16    1
    26    15    38    1
    27    15    39    1
    28    16    17    1
    29    16    18    1
    30    16    40    1
    31    18    19   ar
    32    18    23   ar
    33    19    20   ar
    34    19    41    1
    35    20    21   ar
    36    20    42    1
    37    21    22   ar
    38    21    24    1
    39    22    23   ar
    40    22    43    1
    41    23    44    1
    42    24    45    1
    43    26    46    1
    44    27    47    1
    45    28    48    1
    46    29    49    1
    47    30    50    1
    48     1    31    1
    49     1    27    1
    50     2    32    1
    51     2    28    1
    52     4    34    1
    53     4    30    1
