@<TRIPOS>MOLECULE
*****
 50 53 0 0 0
SMALL
GASTEIGER

@<TRIPOS>ATOM
     1 C         -0.25157   -1.288884   1.745364 C.3        1 UNL1     0.1889
     2 C         -0.418044   -0.987496   0.231629 C.3        1 UNL1     0.1342
     3 C         -1.865494   -1.051337   -0.279523 C.3        1 UNL1     0.1174
     4 C         -2.69688   -2.126238   0.425108 C.3        1 UNL1     0.1456
     5 C         -2.522753   -2.098805   1.954582 C.3        1 UNL1     0.2326
     6 O         -1.14507   -2.248955   2.289714 O.3        1 UNL1     -0.3076
     7 O         -3.136363   -0.957565   2.580981 O.3        1 UNL1     -0.4605
     8 C         -3.625597   -1.157761   3.8593 C.ar        1 UNL1     0.1310
     9 C         -4.395625   -2.251136   4.27026 C.ar        1 UNL1     0.0226
     10 C         -4.830655   -2.372768   5.595347 C.ar        1 UNL1     0.1343
     11 C         -4.485774   -1.415047   6.548064 C.ar        1 UNL1     0.1007
     12 C         -3.751866   -0.297874   6.140526 C.ar        1 UNL1     0.1389
     13 C         -3.316804   -0.174471   4.807513 C.ar        1 UNL1     0.0229
     14 C         -4.847369   -1.536348   7.979388 C.2        1 UNL1     0.1740
     15 C         -4.207614   -0.536816   8.897646 C.3        1 UNL1     0.0520
     16 C         -4.198393   0.818213   8.203549 C.3        1 UNL1     0.1322
     17 O         -3.449422   0.757244   6.969696 O.3        1 UNL1     -0.4828
     18 C         -5.584938   1.453225   8.073259 C.ar        1 UNL1     -0.0067
     19 C         -5.996092   1.969026   6.827018 C.ar        1 UNL1     -0.0516
     20 C         -7.238437   2.598541   6.684706 C.ar        1 UNL1     -0.0198
     21 C         -8.073722   2.724805   7.780236 C.ar        1 UNL1     0.1169
     22 C         -7.71106   2.197342   9.012752 C.ar        1 UNL1     -0.0198
     23 C         -6.476657   1.551443   9.151028 C.ar        1 UNL1     -0.0516
     24 O         -9.259593   3.377406   7.612242 O.3        1 UNL1     -0.5068
     25 O         -5.557057   -2.434936   8.423649 O.2        1 UNL1     -0.2917
     26 O         -5.579523   -3.462682   5.931308 O.3        1 UNL1     -0.5058
     27 O         -0.18258   -0.122325   2.54983 O.3        1 UNL1     -0.3648
     28 O         0.342321   -1.957205   -0.512828 O.3        1 UNL1     -0.3841
     29 O         -2.47677   0.239548   -0.233818 O.3        1 UNL1     -0.3863
     30 O         -2.302119   -3.426602   -0.063673 O.3        1 UNL1     -0.3829
     31 H         0.731474   -1.757325   1.8648 H        1 UNL1     0.0937
     32 H         0.0   0.0   0.0 H        1 UNL1     0.0671
     33 H         -1.833516   -1.321486   -1.344284 H        1 UNL1     0.0649
     34 H         -3.757108   -1.999783   0.179494 H        1 UNL1     0.0683
     35 H         -3.034784   -3.007386   2.295442 H        1 UNL1     0.1085
     36 H         -4.649709   -3.057228   3.590718 H        1 UNL1     0.0691
     37 H         -2.747692   0.705433   4.515328 H        1 UNL1     0.0691
     38 H         -3.18884   -0.881623   9.104365 H        1 UNL1     0.0385
     39 H         -4.759455   -0.513754   9.843542 H        1 UNL1     0.0385
     40 H         -3.623305   1.504121   8.8402 H        1 UNL1     0.0789
     41 H         -5.354739   1.890618   5.953995 H        1 UNL1     0.0623
     42 H         -7.539037   3.002754   5.721243 H        1 UNL1     0.0654
     43 H         -8.364   2.277367   9.873668 H        1 UNL1     0.0654
     44 H         -6.230218   1.141889   10.125901 H        1 UNL1     0.0623
     45 H         -9.071197   4.294923   7.356533 H        1 UNL1     0.2921
     46 H         -5.149941   -3.938286   6.659781 H        1 UNL1     0.2922
     47 H         0.526121   0.457796   2.238282 H        1 UNL1     0.2126
     48 H         1.280179   -1.815659   -0.280188 H        1 UNL1     0.2101
     49 H         -2.077791   0.817519   -0.903563 H        1 UNL1     0.2100
     50 H         -2.553033   -3.482298   -1.009005 H        1 UNL1     0.2102
@<TRIPOS>BOND
     1     1     2    1
     2     1     6    1
     3     2     3    1
     4     3     4    1
     5     3    29    1
     6     3    33    1
     7     4     5    1
     8     5     6    1
     9     5     7    1
    10     5    35    1
    11     7     8    1
    12     8     9   ar
    13     8    13   ar
    14     9    10   ar
    15     9    36    1
    16    10    11   ar
    17    10    26    1
    18    11    12   ar
    19    11    14    1
    20    12    13   ar
    21    12    17    1
    22    13    37    1
    23    14    15    1
    24    14    25    2
    25    15    16    1
    26    15    38    1
    27    15    39    1
    28    16    17    1
    29    16    18    1
    30    16    40    1
    31    18    19   ar
    32    18    23   ar
    33    19    20   ar
    34    19    41    1
    35    20    21   ar
    36    20    42    1
    37    21    22   ar
    38    21    24    1
    39    22    23   ar
    40    22    43    1
    41    23    44    1
    42    24    45    1
    43    26    46    1
    44    27    47    1
    45    28    48    1
    46    29    49    1
    47    30    50    1
    48     1    31    1
    49     1    27    1
    50     2    32    1
    51     2    28    1
    52     4    34    1
    53     4    30    1
