@<TRIPOS>MOLECULE
*****
 50 53 0 0 0
SMALL
GASTEIGER

@<TRIPOS>ATOM
     1 C         -1.3453   0.291818   -1.695823 C.3        1 UNL1     0.1889
     2 C         0.071709   0.106137   -1.089566 C.3        1 UNL1     0.1342
     3 C         1.062866   1.232841   -1.419131 C.3        1 UNL1     0.1174
     4 C         0.854528   1.815936   -2.819028 C.3        1 UNL1     0.1456
     5 C         -0.626034   2.110861   -3.121219 C.3        1 UNL1     0.2326
     6 O         -1.399624   0.923213   -2.966564 O.3        1 UNL1     -0.3076
     7 O         -1.15058   3.228219   -2.381162 O.3        1 UNL1     -0.4605
     8 C         -0.42466   3.612662   -1.268161 C.ar        1 UNL1     0.1310
     9 C         0.971125   3.617201   -1.172944 C.ar        1 UNL1     0.0226
     10 C         1.61548   4.041749   -0.00484 C.ar        1 UNL1     0.1343
     11 C         0.879405   4.49503   1.089039 C.ar        1 UNL1     0.1007
     12 C         -0.515812   4.456461   1.020733 C.ar        1 UNL1     0.1389
     13 C         -1.163509   4.027043   -0.152944 C.ar        1 UNL1     0.0229
     14 C         1.509843   5.033383   2.316588 C.2        1 UNL1     0.1740
     15 C         0.575354   5.680267   3.296292 C.3        1 UNL1     0.0520
     16 C         -0.6978   4.84855   3.368976 C.3        1 UNL1     0.1322
     17 O         -1.338074   4.776983   2.075919 O.3        1 UNL1     -0.4828
     18 C         -0.511425   3.495754   4.060301 C.ar        1 UNL1     -0.0067
     19 C         0.756192   2.878428   4.043853 C.ar        1 UNL1     -0.0516
     20 C         0.949767   1.61971   4.625333 C.ar        1 UNL1     -0.0198
     21 C         -0.115533   0.966221   5.218557 C.ar        1 UNL1     0.1169
     22 C         -1.368047   1.563101   5.280058 C.ar        1 UNL1     -0.0198
     23 C         -1.557607   2.829881   4.714909 C.ar        1 UNL1     -0.0516
     24 O         0.102251   -0.274738   5.741042 O.3        1 UNL1     -0.5068
     25 O         2.722978   5.035727   2.50838 O.2        1 UNL1     -0.2917
     26 O         2.979415   4.020767   0.023903 O.3        1 UNL1     -0.5058
     27 O         -2.2783   0.85803   -0.789345 O.3        1 UNL1     -0.3648
     28 O         0.629744   -1.118501   -1.601001 O.3        1 UNL1     -0.3841
     29 O         1.053833   2.231246   -0.396763 O.3        1 UNL1     -0.3863
     30 O         1.351096   0.88026   -3.80067 O.3        1 UNL1     -0.3829
     31 H         -1.735655   -0.712751   -1.892145 H        1 UNL1     0.0937
     32 H         0.0   0.0   0.0 H        1 UNL1     0.0671
     33 H         2.075036   0.805197   -1.400389 H        1 UNL1     0.0649
     34 H         1.43695   2.737167   -2.930922 H        1 UNL1     0.0683
     35 H         -0.633464   2.359449   -4.189876 H        1 UNL1     0.1085
     36 H         1.600565   3.329705   -2.007972 H        1 UNL1     0.0691
     37 H         -2.250834   4.005395   -0.180306 H        1 UNL1     0.0691
     38 H         0.365636   6.692696   2.934998 H        1 UNL1     0.0385
     39 H         1.073649   5.760383   4.268435 H        1 UNL1     0.0385
     40 H         -1.409596   5.400525   3.997618 H        1 UNL1     0.0789
     41 H         1.606298   3.366727   3.576376 H        1 UNL1     0.0623
     42 H         1.929285   1.148882   4.595702 H        1 UNL1     0.0654
     43 H         -2.205647   1.066761   5.755434 H        1 UNL1     0.0654
     44 H         -2.546845   3.270947   4.790497 H        1 UNL1     0.0623
     45 H         0.09651   -0.205101   6.709461 H        1 UNL1     0.2921
     46 H         3.323849   4.840059   -0.365376 H        1 UNL1     0.2922
     47 H         -2.89724   0.181926   -0.480063 H        1 UNL1     0.2126
     48 H         -0.119621   -1.651393   -1.929954 H        1 UNL1     0.2101
     49 H         1.854339   2.154566   0.146473 H        1 UNL1     0.2100
     50 H         2.310165   0.758086   -3.642643 H        1 UNL1     0.2102
@<TRIPOS>BOND
     1     1     2    1
     2     1     6    1
     3     2     3    1
     4     3     4    1
     5     3    29    1
     6     3    33    1
     7     4     5    1
     8     5     6    1
     9     5     7    1
    10     5    35    1
    11     7     8    1
    12     8     9   ar
    13     8    13   ar
    14     9    10   ar
    15     9    36    1
    16    10    11   ar
    17    10    26    1
    18    11    12   ar
    19    11    14    1
    20    12    13   ar
    21    12    17    1
    22    13    37    1
    23    14    15    1
    24    14    25    2
    25    15    16    1
    26    15    38    1
    27    15    39    1
    28    16    17    1
    29    16    18    1
    30    16    40    1
    31    18    19   ar
    32    18    23   ar
    33    19    20   ar
    34    19    41    1
    35    20    21   ar
    36    20    42    1
    37    21    22   ar
    38    21    24    1
    39    22    23   ar
    40    22    43    1
    41    23    44    1
    42    24    45    1
    43    26    46    1
    44    27    47    1
    45    28    48    1
    46    29    49    1
    47    30    50    1
    48     1    31    1
    49     1    27    1
    50     2    32    1
    51     2    28    1
    52     4    34    1
    53     4    30    1
