@<TRIPOS>MOLECULE
*****
 50 53 0 0 0
SMALL
GASTEIGER

@<TRIPOS>ATOM
     1 C         -0.701309   -1.822829   0.977888 C.3        1 UNL1     0.1889
     2 C         -0.004397   -1.079854   -0.19354 C.3        1 UNL1     0.1342
     3 C         -0.623313   -1.3387   -1.575714 C.3        1 UNL1     0.1174
     4 C         -1.157423   -2.764989   -1.729153 C.3        1 UNL1     0.1456
     5 C         -1.99758   -3.213926   -0.519626 C.3        1 UNL1     0.2326
     6 O         -1.226128   -3.106965   0.674648 O.3        1 UNL1     -0.3076
     7 O         -3.272936   -2.552977   -0.430543 O.3        1 UNL1     -0.4605
     8 C         -4.300844   -3.2916   0.127462 C.ar        1 UNL1     0.1310
     9 C         -4.605495   -4.620944   -0.184518 C.ar        1 UNL1     0.0226
     10 C         -5.659203   -5.289946   0.449545 C.ar        1 UNL1     0.1343
     11 C         -6.419505   -4.652641   1.429149 C.ar        1 UNL1     0.1007
     12 C         -6.151054   -3.312409   1.719829 C.ar        1 UNL1     0.1389
     13 C         -5.093195   -2.639137   1.080243 C.ar        1 UNL1     0.0229
     14 C         -7.489801   -5.337696   2.190281 C.2        1 UNL1     0.1740
     15 C         -8.050128   -4.573518   3.35373 C.3        1 UNL1     0.0520
     16 C         -8.188373   -3.11239   2.948821 C.3        1 UNL1     0.1322
     17 O         -6.904684   -2.55669   2.587699 O.3        1 UNL1     -0.4828
     18 C         -9.299541   -2.858579   1.927248 C.ar        1 UNL1     -0.0067
     19 C         -9.024184   -2.081821   0.783116 C.ar        1 UNL1     -0.0516
     20 C         -10.02959   -1.791057   -0.146712 C.ar        1 UNL1     -0.0198
     21 C         -11.313204   -2.263954   0.059521 C.ar        1 UNL1     0.1169
     22 C         -11.607498   -3.059399   1.159292 C.ar        1 UNL1     -0.0198
     23 C         -10.59799   -3.365717   2.079682 C.ar        1 UNL1     -0.0516
     24 O         -12.274929   -1.928846   -0.847777 O.3        1 UNL1     -0.5068
     25 O         -7.856892   -6.48615   1.956222 O.2        1 UNL1     -0.2917
     26 O         -5.905078   -6.585432   0.099049 O.3        1 UNL1     -0.5058
     27 O         -1.643888   -1.022777   1.673766 O.3        1 UNL1     -0.3648
     28 O         1.369012   -1.507649   -0.252244 O.3        1 UNL1     -0.3841
     29 O         -1.601699   -0.344831   -1.887352 O.3        1 UNL1     -0.3863
     30 O         -0.045311   -3.673158   -1.88448 O.3        1 UNL1     -0.3829
     31 H         0.07536   -2.032681   1.721411 H        1 UNL1     0.0937
     32 H         0.0   0.0   0.0 H        1 UNL1     0.0671
     33 H         0.169154   -1.213591   -2.326755 H        1 UNL1     0.0649
     34 H         -1.763299   -2.841613   -2.638793 H        1 UNL1     0.0683
     35 H         -2.165104   -4.283774   -0.696378 H        1 UNL1     0.1085
     36 H         -4.016724   -5.188891   -0.896492 H        1 UNL1     0.0691
     37 H         -4.905421   -1.595557   1.3235 H        1 UNL1     0.0691
     38 H         -7.353324   -4.687092   4.191042 H        1 UNL1     0.0385
     39 H         -9.009367   -5.015078   3.6447 H        1 UNL1     0.0385
     40 H         -8.486262   -2.554418   3.846846 H        1 UNL1     0.0789
     41 H         -8.026818   -1.691259   0.603193 H        1 UNL1     0.0623
     42 H         -9.807514   -1.181083   -1.01885 H        1 UNL1     0.0654
     43 H         -12.605815   -3.44748   1.322589 H        1 UNL1     0.0654
     44 H         -10.860909   -3.998584   2.921821 H        1 UNL1     0.0623
     45 H         -12.363283   -0.961994   -0.858076 H        1 UNL1     0.2921
     46 H         -5.866563   -7.147239   0.889176 H        1 UNL1     0.2922
     47 H         -1.223688   -0.212252   1.993675 H        1 UNL1     0.2126
     48 H         1.78209   -1.238428   0.590738 H        1 UNL1     0.2101
     49 H         -1.167337   0.509543   -2.039565 H        1 UNL1     0.2100
     50 H         0.395127   -3.467791   -2.735099 H        1 UNL1     0.2102
@<TRIPOS>BOND
     1     1     2    1
     2     1     6    1
     3     2     3    1
     4     3     4    1
     5     3    29    1
     6     3    33    1
     7     4     5    1
     8     5     6    1
     9     5     7    1
    10     5    35    1
    11     7     8    1
    12     8     9   ar
    13     8    13   ar
    14     9    10   ar
    15     9    36    1
    16    10    11   ar
    17    10    26    1
    18    11    12   ar
    19    11    14    1
    20    12    13   ar
    21    12    17    1
    22    13    37    1
    23    14    15    1
    24    14    25    2
    25    15    16    1
    26    15    38    1
    27    15    39    1
    28    16    17    1
    29    16    18    1
    30    16    40    1
    31    18    19   ar
    32    18    23   ar
    33    19    20   ar
    34    19    41    1
    35    20    21   ar
    36    20    42    1
    37    21    22   ar
    38    21    24    1
    39    22    23   ar
    40    22    43    1
    41    23    44    1
    42    24    45    1
    43    26    46    1
    44    27    47    1
    45    28    48    1
    46    29    49    1
    47    30    50    1
    48     1    31    1
    49     1    27    1
    50     2    32    1
    51     2    28    1
    52     4    34    1
    53     4    30    1
