@<TRIPOS>MOLECULE
*****
 50 53 0 0 0
SMALL
GASTEIGER

@<TRIPOS>ATOM
     1 C         -0.621275   -1.02715   1.82477 C.3        1 UNL1     0.1889
     2 C         -0.914656   -0.13125   0.591388 C.3        1 UNL1     0.1342
     3 C         -1.497325   1.250313   0.926416 C.3        1 UNL1     0.1174
     4 C         -2.425722   1.223708   2.143169 C.3        1 UNL1     0.1456
     5 C         -1.826999   0.439958   3.325383 C.3        1 UNL1     0.2326
     6 O         -1.516247   -0.890819   2.918769 O.3        1 UNL1     -0.3076
     7 O         -0.721779   1.11125   3.957187 O.3        1 UNL1     -0.4605
     8 C         0.335434   0.307006   4.343217 C.ar        1 UNL1     0.1310
     9 C         1.490576   0.070293   3.590281 C.ar        1 UNL1     0.0226
     10 C         2.516302   -0.748957   4.076716 C.ar        1 UNL1     0.1343
     11 C         2.422148   -1.332818   5.339286 C.ar        1 UNL1     0.1007
     12 C         1.255542   -1.136977   6.083234 C.ar        1 UNL1     0.1389
     13 C         0.223178   -0.315322   5.592788 C.ar        1 UNL1     0.0229
     14 C         3.511777   -2.138686   5.937149 C.2        1 UNL1     0.1740
     15 C         3.333985   -2.500167   7.38258 C.3        1 UNL1     0.0520
     16 C         1.873478   -2.863714   7.612167 C.3        1 UNL1     0.1322
     17 O         1.011147   -1.750301   7.290036 O.3        1 UNL1     -0.4828
     18 C         1.461031   -4.19144   6.972045 C.ar        1 UNL1     -0.0067
     19 C         2.270523   -5.330898   7.157977 C.ar        1 UNL1     -0.0516
     20 C         1.947591   -6.548786   6.54771 C.ar        1 UNL1     -0.0198
     21 C         0.824399   -6.638061   5.74503 C.ar        1 UNL1     0.1169
     22 C         -0.01068   -5.542252   5.56986 C.ar        1 UNL1     -0.0198
     23 C         0.301938   -4.329142   6.194912 C.ar        1 UNL1     -0.0516
     24 O         0.562514   -7.830428   5.136689 O.3        1 UNL1     -0.5068
     25 O         4.540655   -2.436248   5.336024 O.2        1 UNL1     -0.2917
     26 O         3.616245   -0.940333   3.292442 O.3        1 UNL1     -0.5058
     27 O         0.732473   -0.982389   2.246848 O.3        1 UNL1     -0.3648
     28 O         -1.870301   -0.807467   -0.246574 O.3        1 UNL1     -0.3841
     29 O         -0.457941   2.223897   1.044518 O.3        1 UNL1     -0.3863
     30 O         -3.679749   0.612916   1.768951 O.3        1 UNL1     -0.3829
     31 H         -0.768652   -2.063252   1.500963 H        1 UNL1     0.0937
     32 H         0.0   0.0   0.0 H        1 UNL1     0.0671
     33 H         -2.104954   1.574632   0.070072 H        1 UNL1     0.0649
     34 H         -2.650709   2.246753   2.464357 H        1 UNL1     0.0683
     35 H         -2.654656   0.369382   4.042239 H        1 UNL1     0.1085
     36 H         1.648581   0.539827   2.625557 H        1 UNL1     0.0691
     37 H         -0.675357   -0.179744   6.190908 H        1 UNL1     0.0691
     38 H         3.622658   -1.628685   7.979835 H        1 UNL1     0.0385
     39 H         4.010139   -3.324995   7.632084 H        1 UNL1     0.0385
     40 H         1.742102   -3.008993   8.692979 H        1 UNL1     0.0789
     41 H         3.162481   -5.284319   7.775951 H        1 UNL1     0.0623
     42 H         2.58627   -7.417171   6.689165 H        1 UNL1     0.0654
     43 H         -0.900932   -5.60518   4.955529 H        1 UNL1     0.0654
     44 H         -0.37846   -3.496469   6.044711 H        1 UNL1     0.0623
     45 H         0.045895   -8.379805   5.748249 H        1 UNL1     0.2921
     46 H         3.929029   -0.084365   2.959429 H        1 UNL1     0.2922
     47 H         0.833827   -1.435984   3.095282 H        1 UNL1     0.2126
     48 H         -1.425479   -0.974209   -1.09984 H        1 UNL1     0.2101
     49 H         -0.811264   3.037812   1.437583 H        1 UNL1     0.2100
     50 H         -3.498711   -0.035824   1.057563 H        1 UNL1     0.2102
@<TRIPOS>BOND
     1     1     2    1
     2     1     6    1
     3     2     3    1
     4     3     4    1
     5     3    29    1
     6     3    33    1
     7     4     5    1
     8     5     6    1
     9     5     7    1
    10     5    35    1
    11     7     8    1
    12     8     9   ar
    13     8    13   ar
    14     9    10   ar
    15     9    36    1
    16    10    11   ar
    17    10    26    1
    18    11    12   ar
    19    11    14    1
    20    12    13   ar
    21    12    17    1
    22    13    37    1
    23    14    15    1
    24    14    25    2
    25    15    16    1
    26    15    38    1
    27    15    39    1
    28    16    17    1
    29    16    18    1
    30    16    40    1
    31    18    19   ar
    32    18    23   ar
    33    19    20   ar
    34    19    41    1
    35    20    21   ar
    36    20    42    1
    37    21    22   ar
    38    21    24    1
    39    22    23   ar
    40    22    43    1
    41    23    44    1
    42    24    45    1
    43    26    46    1
    44    27    47    1
    45    28    48    1
    46    29    49    1
    47    30    50    1
    48     1    31    1
    49     1    27    1
    50     2    32    1
    51     2    28    1
    52     4    34    1
    53     4    30    1
