@<TRIPOS>MOLECULE
*****
 50 53 0 0 0
SMALL
GASTEIGER

@<TRIPOS>ATOM
     1 C         -0.294145   -1.363483   1.680832 C.3        1 UNL1     0.1889
     2 C         -0.454259   -0.981367   0.18474 C.3        1 UNL1     0.1342
     3 C         -1.904818   -0.965371   -0.321313 C.3        1 UNL1     0.1174
     4 C         -2.773815   -2.041901   0.333702 C.3        1 UNL1     0.1456
     5 C         -2.593578   -2.096901   1.861724 C.3        1 UNL1     0.2326
     6 O         -1.221419   -2.315125   2.181766 O.3        1 UNL1     -0.3076
     7 O         -3.161506   -0.965883   2.546982 O.3        1 UNL1     -0.4605
     8 C         -3.646764   -1.209051   3.819351 C.ar        1 UNL1     0.1310
     9 C         -4.451225   -2.29324   4.186335 C.ar        1 UNL1     0.0226
     10 C         -4.879166   -2.462062   5.508556 C.ar        1 UNL1     0.1343
     11 C         -4.492941   -1.562856   6.501581 C.ar        1 UNL1     0.1007
     12 C         -3.723712   -0.45382   6.13949 C.ar        1 UNL1     0.1389
     13 C         -3.295743   -0.282857   4.809436 C.ar        1 UNL1     0.0229
     14 C         -4.846596   -1.738903   7.929197 C.2        1 UNL1     0.1740
     15 C         -4.164508   -0.806553   8.886814 C.3        1 UNL1     0.0520
     16 C         -4.113543   0.57856   8.256877 C.3        1 UNL1     0.1322
     17 O         -3.37751   0.549911   7.014096 O.3        1 UNL1     -0.4828
     18 C         -5.47799   1.266685   8.170334 C.ar        1 UNL1     -0.0067
     19 C         -5.881191   1.854613   6.953788 C.ar        1 UNL1     -0.0516
     20 C         -7.101826   2.532819   6.853539 C.ar        1 UNL1     -0.0198
     21 C         -7.922981   2.636165   7.962074 C.ar        1 UNL1     0.1169
     22 C         -7.568765   2.038922   9.164851 C.ar        1 UNL1     -0.0198
     23 C         -6.356675   1.344826   9.26038 C.ar        1 UNL1     -0.0516
     24 O         -9.086583   3.336671   7.836689 O.3        1 UNL1     -0.5068
     25 O         -5.583643   -2.632299   8.337964 O.2        1 UNL1     -0.2917
     26 O         -5.662987   -3.539993   5.800578 O.3        1 UNL1     -0.5058
     27 O         -0.178402   -0.241664   2.541595 O.3        1 UNL1     -0.3648
     28 O         0.266397   -1.940844   -0.610726 O.3        1 UNL1     -0.3841
     29 O         -2.466734   0.343709   -0.208648 O.3        1 UNL1     -0.3863
     30 O         -2.430122   -3.330338   -0.22082 O.3        1 UNL1     -0.3829
     31 H         0.670902   -1.873863   1.771794 H        1 UNL1     0.0937
     32 H         0.0   0.0   0.0 H        1 UNL1     0.0671
     33 H         -1.886687   -1.183401   -1.398278 H        1 UNL1     0.0649
     34 H         -3.829338   -1.863689   0.100224 H        1 UNL1     0.0683
     35 H         -3.138404   -3.001391   2.159956 H        1 UNL1     0.1085
     36 H         -4.73911   -3.057104   3.472364 H        1 UNL1     0.0691
     37 H         -2.698565   0.58959   4.553102 H        1 UNL1     0.0691
     38 H         -3.156769   -1.195827   9.066965 H        1 UNL1     0.0385
     39 H         -4.707276   -0.809002   9.838222 H        1 UNL1     0.0385
     40 H         -3.509439   1.213342   8.919168 H        1 UNL1     0.0789
     41 H         -5.250302   1.795273   6.071683 H        1 UNL1     0.0623
     42 H         -7.396097   2.992185   5.913114 H        1 UNL1     0.0654
     43 H         -8.211277   2.100849   10.035054 H        1 UNL1     0.0654
     44 H         -6.116623   0.881467   10.212493 H        1 UNL1     0.0623
     45 H         -8.869132   4.252249   7.59763 H        1 UNL1     0.2921
     46 H         -5.24361   -4.064773   6.500678 H        1 UNL1     0.2922
     47 H         0.555002   0.322582   2.259451 H        1 UNL1     0.2126
     48 H         1.204931   -1.872018   -0.349674 H        1 UNL1     0.2101
     49 H         -2.04266   0.940793   -0.845394 H        1 UNL1     0.2100
     50 H         -2.680989   -3.327648   -1.1678 H        1 UNL1     0.2102
@<TRIPOS>BOND
     1     1     2    1
     2     1     6    1
     3     2     3    1
     4     3     4    1
     5     3    29    1
     6     3    33    1
     7     4     5    1
     8     5     6    1
     9     5     7    1
    10     5    35    1
    11     7     8    1
    12     8     9   ar
    13     8    13   ar
    14     9    10   ar
    15     9    36    1
    16    10    11   ar
    17    10    26    1
    18    11    12   ar
    19    11    14    1
    20    12    13   ar
    21    12    17    1
    22    13    37    1
    23    14    15    1
    24    14    25    2
    25    15    16    1
    26    15    38    1
    27    15    39    1
    28    16    17    1
    29    16    18    1
    30    16    40    1
    31    18    19   ar
    32    18    23   ar
    33    19    20   ar
    34    19    41    1
    35    20    21   ar
    36    20    42    1
    37    21    22   ar
    38    21    24    1
    39    22    23   ar
    40    22    43    1
    41    23    44    1
    42    24    45    1
    43    26    46    1
    44    27    47    1
    45    28    48    1
    46    29    49    1
    47    30    50    1
    48     1    31    1
    49     1    27    1
    50     2    32    1
    51     2    28    1
    52     4    34    1
    53     4    30    1
