@<TRIPOS>MOLECULE
*****
 50 53 0 0 0
SMALL
GASTEIGER

@<TRIPOS>ATOM
     1 C         -0.168421   -1.269005   1.769764 C.3        1 UNL1     0.1889
     2 C         -0.376283   -0.998388   0.255334 C.3        1 UNL1     0.1342
     3 C         -1.830303   -1.123812   -0.224831 C.3        1 UNL1     0.1174
     4 C         -2.606831   -2.217163   0.513211 C.3        1 UNL1     0.1456
     5 C         -2.403244   -2.158691   2.038169 C.3        1 UNL1     0.2326
     6 O         -1.014491   -2.252493   2.347095 O.3        1 UNL1     -0.3076
     7 O         -3.046228   -1.030924   2.659485 O.3        1 UNL1     -0.4605
     8 C         -3.505333   -1.229577   3.94917 C.ar        1 UNL1     0.1310
     9 C         -4.22829   -2.343505   4.389395 C.ar        1 UNL1     0.0226
     10 C         -4.635226   -2.461035   5.723746 C.ar        1 UNL1     0.1343
     11 C         -4.308146   -1.47773   6.656468 C.ar        1 UNL1     0.1007
     12 C         -3.622072   -0.341257   6.219986 C.ar        1 UNL1     0.1389
     13 C         -3.215308   -0.222073   4.877686 C.ar        1 UNL1     0.0229
     14 C         -4.639843   -1.590753   8.095689 C.2        1 UNL1     0.1740
     15 C         -4.020231   -0.555678   8.988018 C.3        1 UNL1     0.0520
     16 C         -4.07185   0.78846   8.274867 C.3        1 UNL1     0.1322
     17 O         -3.343067   0.736043   7.028594 O.3        1 UNL1     -0.4828
     18 C         -5.482356   1.371728   8.160857 C.ar        1 UNL1     -0.0067
     19 C         -5.928299   1.867832   6.918589 C.ar        1 UNL1     -0.0516
     20 C         -7.194667   2.450854   6.790689 C.ar        1 UNL1     -0.0198
     21 C         -8.019752   2.550137   7.896674 C.ar        1 UNL1     0.1169
     22 C         -7.622014   2.040553   9.125888 C.ar        1 UNL1     -0.0198
     23 C         -6.363032   1.440852   9.249905 C.ar        1 UNL1     -0.0516
     24 O         -9.230871   3.158215   7.742288 O.3        1 UNL1     -0.5068
     25 O         -5.308905   -2.507399   8.565369 O.2        1 UNL1     -0.2917
     26 O         -5.338488   -3.571854   6.088559 O.3        1 UNL1     -0.5058
     27 O         -0.12679   -0.087887   2.55463 O.3        1 UNL1     -0.3648
     28 O         0.404577   -1.95125   -0.489662 O.3        1 UNL1     -0.3841
     29 O         -2.488155   0.144211   -0.186362 O.3        1 UNL1     -0.3863
     30 O         -2.173822   -3.509783   0.036422 O.3        1 UNL1     -0.3829
     31 H         0.83357   -1.698874   1.87609 H        1 UNL1     0.0937
     32 H         0.0   0.0   0.0 H        1 UNL1     0.0671
     33 H         -1.809628   -1.409714   -1.285752 H        1 UNL1     0.0649
     34 H         -3.675737   -2.133884   0.287592 H        1 UNL1     0.0683
     35 H         -2.874177   -3.079935   2.403423 H        1 UNL1     0.1085
     36 H         -4.465262   -3.168042   3.725992 H        1 UNL1     0.0691
     37 H         -2.683355   0.673138   4.562858 H        1 UNL1     0.0691
     38 H         -2.986259   -0.860923   9.181032 H        1 UNL1     0.0385
     39 H         -4.555764   -0.538359   9.943363 H        1 UNL1     0.0385
     40 H         -3.510579   1.503698   8.891251 H        1 UNL1     0.0789
     41 H         -5.295871   1.810019   6.037486 H        1 UNL1     0.0623
     42 H         -7.522376   2.840469   5.830054 H        1 UNL1     0.0654
     43 H         -8.266237   2.099515   9.995032 H        1 UNL1     0.0654
     44 H         -6.0891   1.043952   10.222672 H        1 UNL1     0.0623
     45 H         -9.079631   4.081145   7.481437 H        1 UNL1     0.2921
     46 H         -4.879341   -4.021095   6.81573 H        1 UNL1     0.2922
     47 H         0.545899   0.517606   2.212974 H        1 UNL1     0.2126
     48 H         1.340989   -1.771471   -0.278605 H        1 UNL1     0.2101
     49 H         -2.124457   0.725645   -0.872986 H        1 UNL1     0.2100
     50 H         -2.441375   -3.589919   -0.90257 H        1 UNL1     0.2102
@<TRIPOS>BOND
     1     1     2    1
     2     1     6    1
     3     2     3    1
     4     3     4    1
     5     3    29    1
     6     3    33    1
     7     4     5    1
     8     5     6    1
     9     5     7    1
    10     5    35    1
    11     7     8    1
    12     8     9   ar
    13     8    13   ar
    14     9    10   ar
    15     9    36    1
    16    10    11   ar
    17    10    26    1
    18    11    12   ar
    19    11    14    1
    20    12    13   ar
    21    12    17    1
    22    13    37    1
    23    14    15    1
    24    14    25    2
    25    15    16    1
    26    15    38    1
    27    15    39    1
    28    16    17    1
    29    16    18    1
    30    16    40    1
    31    18    19   ar
    32    18    23   ar
    33    19    20   ar
    34    19    41    1
    35    20    21   ar
    36    20    42    1
    37    21    22   ar
    38    21    24    1
    39    22    23   ar
    40    22    43    1
    41    23    44    1
    42    24    45    1
    43    26    46    1
    44    27    47    1
    45    28    48    1
    46    29    49    1
    47    30    50    1
    48     1    31    1
    49     1    27    1
    50     2    32    1
    51     2    28    1
    52     4    34    1
    53     4    30    1
