@<TRIPOS>MOLECULE
*****
 50 53 0 0 0
SMALL
GASTEIGER

@<TRIPOS>ATOM
     1 C         -0.335523   -1.383378   1.656651 C.3        1 UNL1     0.1889
     2 C         -0.469788   -0.977697   0.164225 C.3        1 UNL1     0.1342
     3 C         -1.912852   -0.934857   -0.36132 C.3        1 UNL1     0.1174
     4 C         -2.805086   -2.008851   0.266033 C.3        1 UNL1     0.1456
     5 C         -2.646794   -2.088211   1.795415 C.3        1 UNL1     0.2326
     6 O         -1.282227   -2.32951   2.130974 O.3        1 UNL1     -0.3076
     7 O         -3.209073   -0.959584   2.489221 O.3        1 UNL1     -0.4605
     8 C         -3.725339   -1.216682   3.746558 C.ar        1 UNL1     0.1310
     9 C         -4.550722   -2.296465   4.078388 C.ar        1 UNL1     0.0226
     10 C         -5.009903   -2.480725   5.388008 C.ar        1 UNL1     0.1343
     11 C         -4.635028   -1.602073   6.403528 C.ar        1 UNL1     0.1007
     12 C         -3.844676   -0.497089   6.076212 C.ar        1 UNL1     0.1389
     13 C         -3.385268   -0.310566   4.758796 C.ar        1 UNL1     0.0229
     14 C         -5.022372   -1.79613   7.820024 C.2        1 UNL1     0.1740
     15 C         -4.350546   -0.887445   8.807188 C.3        1 UNL1     0.0520
     16 C         -4.268963   0.506654   8.200731 C.3        1 UNL1     0.1322
     17 O         -3.505927   0.488423   6.974145 O.3        1 UNL1     -0.4828
     18 C         -5.622783   1.212882   8.095194 C.ar        1 UNL1     -0.0067
     19 C         -5.74108   2.367355   7.294311 C.ar        1 UNL1     -0.0516
     20 C         -6.952495   3.064409   7.213379 C.ar        1 UNL1     -0.0198
     21 C         -8.048428   2.622369   7.932657 C.ar        1 UNL1     0.1169
     22 C         -7.972352   1.469752   8.703711 C.ar        1 UNL1     -0.0198
     23 C         -6.766208   0.76205   8.770268 C.ar        1 UNL1     -0.0516
     24 O         -9.200755   3.348387   7.858908 O.3        1 UNL1     -0.5068
     25 O         -5.778997   -2.686648   8.198152 O.2        1 UNL1     -0.2917
     26 O         -5.812914   -3.553328   5.645458 O.3        1 UNL1     -0.5058
     27 O         -0.216812   -0.275697   2.535136 O.3        1 UNL1     -0.3648
     28 O         0.248999   -1.935295   -0.635185 O.3        1 UNL1     -0.3841
     29 O         -2.458815   0.379936   -0.237322 O.3        1 UNL1     -0.3863
     30 O         -2.470907   -3.293717   -0.302415 O.3        1 UNL1     -0.3829
     31 H         0.621297   -1.907992   1.753362 H        1 UNL1     0.0937
     32 H         0.0   0.0   0.0 H        1 UNL1     0.0671
     33 H         -1.882697   -1.137628   -1.440993 H        1 UNL1     0.0649
     34 H         -3.854808   -1.813074   0.020768 H        1 UNL1     0.0683
     35 H         -3.207682   -2.989452   2.072989 H        1 UNL1     0.1085
     36 H         -4.831853   -3.045401   3.346145 H        1 UNL1     0.0691
     37 H         -2.772102   0.558344   4.529633 H        1 UNL1     0.0691
     38 H         -3.351806   -1.291939   9.003224 H        1 UNL1     0.0385
     39 H         -4.914286   -0.89812   9.746263 H        1 UNL1     0.0385
     40 H         -3.67212   1.123433   8.886209 H        1 UNL1     0.0789
     41 H         -4.892938   2.739865   6.727264 H        1 UNL1     0.0623
     42 H         -7.027774   3.960068   6.601709 H        1 UNL1     0.0654
     43 H         -8.828677   1.106253   9.259127 H        1 UNL1     0.0654
     44 H         -6.74558   -0.140129   9.374 H        1 UNL1     0.0623
     45 H         -9.028804   4.233958   8.217955 H        1 UNL1     0.2921
     46 H         -5.427419   -4.081383   6.36237 H        1 UNL1     0.2922
     47 H         0.516728   0.292165   2.260709 H        1 UNL1     0.2126
     48 H         1.195166   -1.825491   -0.419677 H        1 UNL1     0.2101
     49 H         -2.024066   0.978395   -0.86552 H        1 UNL1     0.2100
     50 H         -2.734588   -3.283795   -1.245859 H        1 UNL1     0.2102
@<TRIPOS>BOND
     1     1     2    1
     2     1     6    1
     3     2     3    1
     4     3     4    1
     5     3    29    1
     6     3    33    1
     7     4     5    1
     8     5     6    1
     9     5     7    1
    10     5    35    1
    11     7     8    1
    12     8     9   ar
    13     8    13   ar
    14     9    10   ar
    15     9    36    1
    16    10    11   ar
    17    10    26    1
    18    11    12   ar
    19    11    14    1
    20    12    13   ar
    21    12    17    1
    22    13    37    1
    23    14    15    1
    24    14    25    2
    25    15    16    1
    26    15    38    1
    27    15    39    1
    28    16    17    1
    29    16    18    1
    30    16    40    1
    31    18    19   ar
    32    18    23   ar
    33    19    20   ar
    34    19    41    1
    35    20    21   ar
    36    20    42    1
    37    21    22   ar
    38    21    24    1
    39    22    23   ar
    40    22    43    1
    41    23    44    1
    42    24    45    1
    43    26    46    1
    44    27    47    1
    45    28    48    1
    46    29    49    1
    47    30    50    1
    48     1    31    1
    49     1    27    1
    50     2    32    1
    51     2    28    1
    52     4    34    1
    53     4    30    1
