@<TRIPOS>MOLECULE
*****
 50 53 0 0 0
SMALL
GASTEIGER

@<TRIPOS>ATOM
     1 C         -0.004674   -1.108874   1.881803 C.3        1 UNL1     0.1889
     2 C         -0.266164   -1.003258   0.355235 C.3        1 UNL1     0.1342
     3 C         -1.707584   -1.320039   -0.071874 C.3        1 UNL1     0.1174
     4 C         -2.353409   -2.41299   0.783395 C.3        1 UNL1     0.1456
     5 C         -2.13011   -2.192115   2.290616 C.3        1 UNL1     0.2326
     6 O         -0.733884   -2.115073   2.568979 O.3        1 UNL1     -0.3076
     7 O         -2.875508   -1.082504   2.82397 O.3        1 UNL1     -0.4605
     8 C         -3.278963   -1.200708   4.14184 C.ar        1 UNL1     0.1310
     9 C         -3.86676   -2.335711   4.710666 C.ar        1 UNL1     0.0226
     10 C         -4.226016   -2.36378   6.063459 C.ar        1 UNL1     0.1343
     11 C         -3.984131   -1.264857   6.886685 C.ar        1 UNL1     0.1007
     12 C         -3.435328   -0.111044   6.320721 C.ar        1 UNL1     0.1389
     13 C         -3.076615   -0.082136   4.959868 C.ar        1 UNL1     0.0229
     14 C         -4.266537   -1.270286   8.340773 C.2        1 UNL1     0.1740
     15 C         -3.740472   -0.093417   9.108747 C.3        1 UNL1     0.0520
     16 C         -3.953965   1.161408   8.273407 C.3        1 UNL1     0.1322
     17 O         -3.254376   1.063682   7.013211 O.3        1 UNL1     -0.4828
     18 C         -5.421455   1.579534   8.153535 C.ar        1 UNL1     -0.0067
     19 C         -5.952348   1.887434   6.884061 C.ar        1 UNL1     -0.0516
     20 C         -7.276946   2.318707   6.744756 C.ar        1 UNL1     -0.0198
     21 C         -8.07684   2.4529   7.865466 C.ar        1 UNL1     0.1169
     22 C         -7.592774   2.125252   9.125293 C.ar        1 UNL1     -0.0198
     23 C         -6.273839   1.676301   9.262801 C.ar        1 UNL1     -0.0516
     24 O         -9.349948   2.91175   7.695014 O.3        1 UNL1     -0.5068
     25 O         -4.821305   -2.201511   8.9183 O.2        1 UNL1     -0.2917
     26 O         -4.796413   -3.501039   6.556281 O.3        1 UNL1     -0.5058
     27 O         -0.071902   0.138407   2.554527 O.3        1 UNL1     -0.3648
     28 O         0.596026   -1.937164   -0.320897 O.3        1 UNL1     -0.3841
     29 O         -2.492595   -0.127402   -0.131092 O.3        1 UNL1     -0.3863
     30 O         -1.797178   -3.693732   0.414615 O.3        1 UNL1     -0.3829
     31 H         1.038209   -1.422891   1.999557 H        1 UNL1     0.0937
     32 H         0.0   0.0   0.0 H        1 UNL1     0.0671
     33 H         -1.676096   -1.700087   -1.10255 H        1 UNL1     0.0649
     34 H         -3.429003   -2.460179   0.580238 H        1 UNL1     0.0683
     35 H         -2.49646   -3.11833   2.750825 H        1 UNL1     0.1085
     36 H         -4.029628   -3.241639   4.137177 H        1 UNL1     0.0691
     37 H         -2.652034   0.828691   4.543193 H        1 UNL1     0.0691
     38 H         -2.675237   -0.268135   9.293883 H        1 UNL1     0.0385
     39 H         -4.251305   -0.038705   10.076132 H        1 UNL1     0.0385
     40 H         -3.458155   1.988564   8.799244 H        1 UNL1     0.0789
     41 H         -5.342117   1.798992   5.989944 H        1 UNL1     0.0623
     42 H         -7.671093   2.564491   5.761776 H        1 UNL1     0.0654
     43 H         -8.215183   2.212297   10.007869 H        1 UNL1     0.0654
     44 H         -5.932021   1.419083   10.260721 H        1 UNL1     0.0623
     45 H         -9.306149   3.801316   7.308399 H        1 UNL1     0.2921
     46 H         -4.273951   -3.826132   7.306454 H        1 UNL1     0.2922
     47 H         0.541382   0.769242   2.152296 H        1 UNL1     0.2126
     48 H         1.512861   -1.665809   -0.122119 H        1 UNL1     0.2101
     49 H         -2.197816   0.425244   -0.872362 H        1 UNL1     0.2100
     50 H         -2.066794   -3.885292   -0.507516 H        1 UNL1     0.2102
@<TRIPOS>BOND
     1     1     2    1
     2     1     6    1
     3     2     3    1
     4     3     4    1
     5     3    29    1
     6     3    33    1
     7     4     5    1
     8     5     6    1
     9     5     7    1
    10     5    35    1
    11     7     8    1
    12     8     9   ar
    13     8    13   ar
    14     9    10   ar
    15     9    36    1
    16    10    11   ar
    17    10    26    1
    18    11    12   ar
    19    11    14    1
    20    12    13   ar
    21    12    17    1
    22    13    37    1
    23    14    15    1
    24    14    25    2
    25    15    16    1
    26    15    38    1
    27    15    39    1
    28    16    17    1
    29    16    18    1
    30    16    40    1
    31    18    19   ar
    32    18    23   ar
    33    19    20   ar
    34    19    41    1
    35    20    21   ar
    36    20    42    1
    37    21    22   ar
    38    21    24    1
    39    22    23   ar
    40    22    43    1
    41    23    44    1
    42    24    45    1
    43    26    46    1
    44    27    47    1
    45    28    48    1
    46    29    49    1
    47    30    50    1
    48     1    31    1
    49     1    27    1
    50     2    32    1
    51     2    28    1
    52     4    34    1
    53     4    30    1
