@<TRIPOS>MOLECULE
*****
 50 53 0 0 0
SMALL
GASTEIGER

@<TRIPOS>ATOM
     1 C         0.324498   -0.626667   2.067074 C.3        1 UNL1     0.1889
     2 C         0.018791   -0.933328   0.576288 C.3        1 UNL1     0.1342
     3 C         -1.291684   -1.697979   0.334563 C.3        1 UNL1     0.1174
     4 C         -1.606151   -2.702781   1.445689 C.3        1 UNL1     0.1456
     5 C         -1.425164   -2.103261   2.852168 C.3        1 UNL1     0.2326
     6 O         -0.096372   -1.608688   3.002434 O.3        1 UNL1     -0.3076
     7 O         -2.431961   -1.134021   3.196049 O.3        1 UNL1     -0.4605
     8 C         -2.766823   -1.057113   4.536005 C.ar        1 UNL1     0.1310
     9 C         -3.018901   -2.149989   5.372293 C.ar        1 UNL1     0.0226
     10 C         -3.334794   -1.969172   6.724114 C.ar        1 UNL1     0.1343
     11 C         -3.382952   -0.690863   7.278594 C.ar        1 UNL1     0.1007
     12 C         -3.173433   0.41027   6.444093 C.ar        1 UNL1     0.1389
     13 C         -2.858422   0.228315   5.08428 C.ar        1 UNL1     0.0229
     14 C         -3.629208   -0.446461   8.718656 C.2        1 UNL1     0.1740
     15 C         -3.425489   0.966247   9.181586 C.3        1 UNL1     0.0520
     16 C         -3.981803   1.905865   8.120647 C.3        1 UNL1     0.1322
     17 O         -3.302804   1.715142   6.859831 O.3        1 UNL1     -0.4828
     18 C         -5.509461   1.893655   8.026651 C.ar        1 UNL1     -0.0067
     19 C         -6.124639   1.76467   6.764458 C.ar        1 UNL1     -0.0516
     20 C         -7.51852   1.797399   6.638019 C.ar        1 UNL1     -0.0198
     21 C         -8.306246   1.965593   7.762753 C.ar        1 UNL1     0.1169
     22 C         -7.731033   2.061783   9.023196 C.ar        1 UNL1     -0.0198
     23 C         -6.337893   2.010571   9.152008 C.ar        1 UNL1     -0.0516
     24 O         -9.658453   2.030639   7.596304 O.3        1 UNL1     -0.5068
     25 O         -3.90401   -1.337264   9.518305 O.2        1 UNL1     -0.2917
     26 O         -3.570778   -3.07653   7.485465 O.3        1 UNL1     -0.5058
     27 O         -0.063715   0.677985   2.467024 O.3        1 UNL1     -0.3648
     28 O         1.088545   -1.738857   0.047655 O.3        1 UNL1     -0.3841
     29 O         -2.368816   -0.79228   0.086313 O.3        1 UNL1     -0.3863
     30 O         -0.732883   -3.845278   1.312298 O.3        1 UNL1     -0.3829
     31 H         1.415212   -0.626635   2.169154 H        1 UNL1     0.0937
     32 H         -0.0   0.0   0.0 H        1 UNL1     0.0671
     33 H         -1.176591   -2.275743   -0.593155 H        1 UNL1     0.0649
     34 H         -2.632871   -3.069841   1.338386 H        1 UNL1     0.0683
     35 H         -1.52179   -2.966729   3.522217 H        1 UNL1     0.1085
     36 H         -2.942252   -3.17105   5.014973 H        1 UNL1     0.0691
     37 H         -2.70085   1.101996   4.455516 H        1 UNL1     0.0691
     38 H         -2.349501   1.117975   9.318531 H        1 UNL1     0.0385
     39 H         -3.916031   1.100325   10.151725 H        1 UNL1     0.0385
     40 H         -3.717426   2.928233   8.422952 H        1 UNL1     0.0789
     41 H         -5.528083   1.640778   5.865335 H        1 UNL1     0.0623
     42 H         -7.980531   1.708824   5.65786 H        1 UNL1     0.0654
     43 H         -8.339137   2.178659   9.912274 H        1 UNL1     0.0654
     44 H         -5.922965   2.078199   10.15306 H        1 UNL1     0.0623
     45 H         -9.861437   2.792702   7.029935 H        1 UNL1     0.2921
     46 H         -2.967783   -3.081028   8.245589 H        1 UNL1     0.2922
     47 H         0.350985   1.340298   1.896738 H        1 UNL1     0.2126
     48 H         1.900132   -1.198725   0.105238 H        1 UNL1     0.2101
     49 H         -2.245575   -0.36088   -0.77421 H        1 UNL1     0.2100
     50 H         -0.956574   -4.29946   0.473613 H        1 UNL1     0.2102
@<TRIPOS>BOND
     1     1     2    1
     2     1     6    1
     3     2     3    1
     4     3     4    1
     5     3    29    1
     6     3    33    1
     7     4     5    1
     8     5     6    1
     9     5     7    1
    10     5    35    1
    11     7     8    1
    12     8     9   ar
    13     8    13   ar
    14     9    10   ar
    15     9    36    1
    16    10    11   ar
    17    10    26    1
    18    11    12   ar
    19    11    14    1
    20    12    13   ar
    21    12    17    1
    22    13    37    1
    23    14    15    1
    24    14    25    2
    25    15    16    1
    26    15    38    1
    27    15    39    1
    28    16    17    1
    29    16    18    1
    30    16    40    1
    31    18    19   ar
    32    18    23   ar
    33    19    20   ar
    34    19    41    1
    35    20    21   ar
    36    20    42    1
    37    21    22   ar
    38    21    24    1
    39    22    23   ar
    40    22    43    1
    41    23    44    1
    42    24    45    1
    43    26    46    1
    44    27    47    1
    45    28    48    1
    46    29    49    1
    47    30    50    1
    48     1    31    1
    49     1    27    1
    50     2    32    1
    51     2    28    1
    52     4    34    1
    53     4    30    1
