@<TRIPOS>MOLECULE
*****
 50 53 0 0 0
SMALL
GASTEIGER

@<TRIPOS>ATOM
     1 C         1.209516   0.42554   1.768273 C.3        1 UNL1     0.1889
     2 C         -0.149975   0.373404   1.020607 C.3        1 UNL1     0.1342
     3 C         -0.899683   1.713032   0.95896 C.3        1 UNL1     0.1174
     4 C         -0.703506   2.561419   2.217877 C.3        1 UNL1     0.1456
     5 C         0.770276   2.63339   2.657366 C.3        1 UNL1     0.2326
     6 O         1.278792   1.318483   2.870203 O.3        1 UNL1     -0.3076
     7 O         1.592569   3.422743   1.778686 O.3        1 UNL1     -0.4605
     8 C         1.12544   4.692142   1.488958 C.ar        1 UNL1     0.1310
     9 C         0.321586   5.029652   0.394789 C.ar        1 UNL1     0.0226
     10 C         -0.115743   6.344664   0.196324 C.ar        1 UNL1     0.1343
     11 C         0.220853   7.350511   1.101208 C.ar        1 UNL1     0.1007
     12 C         1.056953   7.033877   2.175202 C.ar        1 UNL1     0.1389
     13 C         1.498728   5.712094   2.373081 C.ar        1 UNL1     0.0229
     14 C         -0.282569   8.738838   0.986024 C.2        1 UNL1     0.1740
     15 C         -0.005385   9.629595   2.161298 C.3        1 UNL1     0.0520
     16 C         1.405363   9.346022   2.658623 C.3        1 UNL1     0.1322
     17 O         1.53811   7.966063   3.065024 O.3        1 UNL1     -0.4828
     18 C         2.502909   9.836735   1.711354 C.ar        1 UNL1     -0.0067
     19 C         3.848091   9.801338   2.132599 C.ar        1 UNL1     -0.0516
     20 C         4.871525   10.286332   1.3096 C.ar        1 UNL1     -0.0198
     21 C         4.56271   10.814765   0.068947 C.ar        1 UNL1     0.1169
     22 C         3.251148   10.83262   -0.38748 C.ar        1 UNL1     -0.0198
     23 C         2.229585   10.330771   0.427759 C.ar        1 UNL1     -0.0516
     24 O         5.581555   11.312301   -0.689217 O.3        1 UNL1     -0.5068
     25 O         -0.954704   9.137889   0.038671 O.2        1 UNL1     -0.2917
     26 O         -0.896497   6.607967   -0.891187 O.3        1 UNL1     -0.5058
     27 O         2.324822   0.57284   0.903876 O.3        1 UNL1     -0.3648
     28 O         -1.006402   -0.566085   1.696328 O.3        1 UNL1     -0.3841
     29 O         -0.577276   2.419785   -0.240493 O.3        1 UNL1     -0.3863
     30 O         -1.482103   1.997209   3.295441 O.3        1 UNL1     -0.3829
     31 H         1.352142   -0.558942   2.227111 H        1 UNL1     0.0937
     32 H         0.0   0.0   -0.0 H        1 UNL1     0.0671
     33 H         -1.974084   1.493094   0.888183 H        1 UNL1     0.0649
     34 H         -1.080053   3.576101   2.047486 H        1 UNL1     0.0683
     35 H         0.730085   3.122538   3.63869 H        1 UNL1     0.1085
     36 H         -0.020455   4.282891   -0.313362 H        1 UNL1     0.0691
     37 H         2.149812   5.491804   3.216322 H        1 UNL1     0.0691
     38 H         -0.749198   9.401748   2.932243 H        1 UNL1     0.0385
     39 H         -0.135524   10.674191   1.858541 H        1 UNL1     0.0385
     40 H         1.543363   9.91959   3.585174 H        1 UNL1     0.0789
     41 H         4.115506   9.399902   3.105732 H        1 UNL1     0.0623
     42 H         5.903628   10.264455   1.650621 H        1 UNL1     0.0654
     43 H         2.999912   11.230384   -1.363479 H        1 UNL1     0.0654
     44 H         1.217592   10.350754   0.034928 H        1 UNL1     0.0623
     45 H         6.157024   11.845859   -0.117492 H        1 UNL1     0.2921
     46 H         -1.561464   7.275002   -0.658175 H        1 UNL1     0.2922
     47 H         2.299354   -0.097868   0.207196 H        1 UNL1     0.2126
     48 H         -0.658118   -1.456213   1.496068 H        1 UNL1     0.2101
     49 H         -0.243132   1.800474   -0.908771 H        1 UNL1     0.2100
     50 H         -2.429689   2.111216   3.074544 H        1 UNL1     0.2102
@<TRIPOS>BOND
     1     1     2    1
     2     1     6    1
     3     2     3    1
     4     3     4    1
     5     3    29    1
     6     3    33    1
     7     4     5    1
     8     5     6    1
     9     5     7    1
    10     5    35    1
    11     7     8    1
    12     8     9   ar
    13     8    13   ar
    14     9    10   ar
    15     9    36    1
    16    10    11   ar
    17    10    26    1
    18    11    12   ar
    19    11    14    1
    20    12    13   ar
    21    12    17    1
    22    13    37    1
    23    14    15    1
    24    14    25    2
    25    15    16    1
    26    15    38    1
    27    15    39    1
    28    16    17    1
    29    16    18    1
    30    16    40    1
    31    18    19   ar
    32    18    23   ar
    33    19    20   ar
    34    19    41    1
    35    20    21   ar
    36    20    42    1
    37    21    22   ar
    38    21    24    1
    39    22    23   ar
    40    22    43    1
    41    23    44    1
    42    24    45    1
    43    26    46    1
    44    27    47    1
    45    28    48    1
    46    29    49    1
    47    30    50    1
    48     1    31    1
    49     1    27    1
    50     2    32    1
    51     2    28    1
    52     4    34    1
    53     4    30    1
