@<TRIPOS>MOLECULE
*****
 50 53 0 0 0
SMALL
GASTEIGER

@<TRIPOS>ATOM
     1 C         -0.339728   -1.333525   1.696202 C.3        1 UNL1     0.1889
     2 C         -0.466198   -0.974508   0.191193 C.3        1 UNL1     0.1342
     3 C         -1.905996   -0.954959   -0.344591 C.3        1 UNL1     0.1174
     4 C         -2.797185   -2.013595   0.309773 C.3        1 UNL1     0.1456
     5 C         -2.648479   -2.045194   1.841847 C.3        1 UNL1     0.2326
     6 O         -1.284995   -2.269326   2.193336 O.3        1 UNL1     -0.3076
     7 O         -3.220618   -0.898601   2.497059 O.3        1 UNL1     -0.4605
     8 C         -3.733647   -1.117087   3.762995 C.ar        1 UNL1     0.1310
     9 C         -4.554531   -2.18859   4.130868 C.ar        1 UNL1     0.0226
     10 C         -5.010641   -2.332399   5.446613 C.ar        1 UNL1     0.1343
     11 C         -4.637066   -1.420327   6.43272 C.ar        1 UNL1     0.1007
     12 C         -3.851294   -0.323614   6.068619 C.ar        1 UNL1     0.1389
     13 C         -3.39498   -0.177794   4.745009 C.ar        1 UNL1     0.0229
     14 C         -5.021108   -1.570247   7.85546 C.2        1 UNL1     0.1740
     15 C         -4.350743   -0.628017   8.811683 C.3        1 UNL1     0.0520
     16 C         -4.275288   0.746206   8.160702 C.3        1 UNL1     0.1322
     17 O         -3.514444   0.691365   6.933845 O.3        1 UNL1     -0.4828
     18 C         -5.631831   1.443897   8.035227 C.ar        1 UNL1     -0.0067
     19 C         -6.005263   2.015215   6.801388 C.ar        1 UNL1     -0.0516
     20 C         -7.217833   2.701597   6.665309 C.ar        1 UNL1     -0.0198
     21 C         -8.060421   2.829631   7.755025 C.ar        1 UNL1     0.1169
     22 C         -7.73576   2.249174   8.974248 C.ar        1 UNL1     -0.0198
     23 C         -6.531773   1.546897   9.105689 C.ar        1 UNL1     -0.0516
     24 O         -9.215273   3.537437   7.594625 O.3        1 UNL1     -0.5068
     25 O         -5.77383   -2.450857   8.263407 O.2        1 UNL1     -0.2917
     26 O         -5.809315   -3.399031   5.73987 O.3        1 UNL1     -0.5058
     27 O         -0.232003   -0.19883   2.540979 O.3        1 UNL1     -0.3648
     28 O         0.26232   -1.952622   -0.573831 O.3        1 UNL1     -0.3841
     29 O         -2.458995   0.360303   -0.264521 O.3        1 UNL1     -0.3863
     30 O         -2.453212   -3.313632   -0.216796 O.3        1 UNL1     -0.3829
     31 H         0.618924   -1.850183   1.81507 H        1 UNL1     0.0937
     32 H         0.0   0.0   0.0 H        1 UNL1     0.0671
     33 H         -1.867849   -1.19062   -1.417311 H        1 UNL1     0.0649
     34 H         -3.846206   -1.830633   0.051934 H        1 UNL1     0.0683
     35 H         -3.206876   -2.940256   2.143404 H        1 UNL1     0.1085
     36 H         -4.834311   -2.961603   3.423552 H        1 UNL1     0.0691
     37 H         -2.785365   0.685487   4.486921 H        1 UNL1     0.0691
     38 H         -3.350197   -1.022485   9.018633 H        1 UNL1     0.0385
     39 H         -4.912716   -0.610578   9.751715 H        1 UNL1     0.0385
     40 H         -3.679409   1.386748   8.824897 H        1 UNL1     0.0789
     41 H         -5.35712   1.936408   5.93343 H        1 UNL1     0.0623
     42 H         -7.489056   3.147981   5.711794 H        1 UNL1     0.0654
     43 H         -8.395261   2.330468   9.830028 H        1 UNL1     0.0654
     44 H         -6.315026   1.097152   10.069844 H        1 UNL1     0.0623
     45 H         -8.985213   4.447935   7.348082 H        1 UNL1     0.2921
     46 H         -5.409381   -3.914968   6.457696 H        1 UNL1     0.2922
     47 H         0.511723   0.354773   2.264836 H        1 UNL1     0.2126
     48 H         1.197749   -1.879387   -0.303017 H        1 UNL1     0.2101
     49 H         -2.017048   0.943484   -0.901997 H        1 UNL1     0.2100
     50 H         -2.689997   -3.326222   -1.167315 H        1 UNL1     0.2102
@<TRIPOS>BOND
     1     1     2    1
     2     1     6    1
     3     2     3    1
     4     3     4    1
     5     3    29    1
     6     3    33    1
     7     4     5    1
     8     5     6    1
     9     5     7    1
    10     5    35    1
    11     7     8    1
    12     8     9   ar
    13     8    13   ar
    14     9    10   ar
    15     9    36    1
    16    10    11   ar
    17    10    26    1
    18    11    12   ar
    19    11    14    1
    20    12    13   ar
    21    12    17    1
    22    13    37    1
    23    14    15    1
    24    14    25    2
    25    15    16    1
    26    15    38    1
    27    15    39    1
    28    16    17    1
    29    16    18    1
    30    16    40    1
    31    18    19   ar
    32    18    23   ar
    33    19    20   ar
    34    19    41    1
    35    20    21   ar
    36    20    42    1
    37    21    22   ar
    38    21    24    1
    39    22    23   ar
    40    22    43    1
    41    23    44    1
    42    24    45    1
    43    26    46    1
    44    27    47    1
    45    28    48    1
    46    29    49    1
    47    30    50    1
    48     1    31    1
    49     1    27    1
    50     2    32    1
    51     2    28    1
    52     4    34    1
    53     4    30    1
