@<TRIPOS>MOLECULE
*****
 50 53 0 0 0
SMALL
GASTEIGER

@<TRIPOS>ATOM
     1 C         -0.326554   -1.366744   1.672178 C.3        1 UNL1     0.1889
     2 C         -0.462191   -0.979447   0.174999 C.3        1 UNL1     0.1342
     3 C         -1.904896   -0.954207   -0.352666 C.3        1 UNL1     0.1174
     4 C         -2.789327   -2.027952   0.28606 C.3        1 UNL1     0.1456
     5 C         -2.632309   -2.088339   1.816439 C.3        1 UNL1     0.2326
     6 O         -1.266281   -2.314844   2.15634 O.3        1 UNL1     -0.3076
     7 O         -3.204419   -0.956279   2.496477 O.3        1 UNL1     -0.4605
     8 C         -3.720183   -1.202917   3.756114 C.ar        1 UNL1     0.1310
     9 C         -4.543015   -2.281539   4.097906 C.ar        1 UNL1     0.0226
     10 C         -5.001872   -2.454721   5.40915 C.ar        1 UNL1     0.1343
     11 C         -4.629189   -1.565779   6.416488 C.ar        1 UNL1     0.1007
     12 C         -3.841448   -0.461998   6.078974 C.ar        1 UNL1     0.1389
     13 C         -3.382369   -0.286626   4.759913 C.ar        1 UNL1     0.0229
     14 C         -5.016196   -1.747593   7.834699 C.2        1 UNL1     0.1740
     15 C         -4.346631   -0.828174   8.813424 C.3        1 UNL1     0.0520
     16 C         -4.268324   0.560422   8.194047 C.3        1 UNL1     0.1322
     17 O         -3.505135   0.532619   6.967735 O.3        1 UNL1     -0.4828
     18 C         -5.623816   1.262403   8.081861 C.ar        1 UNL1     -0.0067
     19 C         -5.744798   2.409099   7.270279 C.ar        1 UNL1     -0.0516
     20 C         -6.957868   3.102475   7.182792 C.ar        1 UNL1     -0.0198
     21 C         -8.052806   2.66452   7.906071 C.ar        1 UNL1     0.1169
     22 C         -7.974047   1.519301   8.687806 C.ar        1 UNL1     -0.0198
     23 C         -6.766222   0.815132   8.761016 C.ar        1 UNL1     -0.0516
     24 O         -9.206858   3.387066   7.825502 O.3        1 UNL1     -0.5068
     25 O         -5.770726   -2.636365   8.221033 O.2        1 UNL1     -0.2917
     26 O         -5.802343   -3.526801   5.676499 O.3        1 UNL1     -0.5058
     27 O         -0.217759   -0.248057   2.537909 O.3        1 UNL1     -0.3648
     28 O         0.265192   -1.940469   -0.612437 O.3        1 UNL1     -0.3841
     29 O         -2.461466   0.357536   -0.244535 O.3        1 UNL1     -0.3863
     30 O         -2.444221   -3.316604   -0.267083 O.3        1 UNL1     -0.3829
     31 H         0.634294   -1.882554   1.77606 H        1 UNL1     0.0937
     32 H         0.0   0.0   0.0 H        1 UNL1     0.0671
     33 H         -1.871786   -1.169214   -1.429883 H        1 UNL1     0.0649
     34 H         -3.84027   -1.843406   0.037335 H        1 UNL1     0.0683
     35 H         -3.186347   -2.990753   2.103789 H        1 UNL1     0.1085
     36 H         -4.822291   -3.037916   3.372633 H        1 UNL1     0.0691
     37 H         -2.771259   0.58158   4.522728 H        1 UNL1     0.0691
     38 H         -3.346946   -1.228441   9.013277 H        1 UNL1     0.0385
     39 H         -4.910428   -0.831471   9.752519 H        1 UNL1     0.0385
     40 H         -3.673016   1.184967   8.873806 H        1 UNL1     0.0789
     41 H         -4.897498   2.778351   6.699853 H        1 UNL1     0.0623
     42 H         -7.03523   3.99223   6.562822 H        1 UNL1     0.0654
     43 H         -8.829552   1.158932   9.246516 H        1 UNL1     0.0654
     44 H         -6.743494   -0.081348   9.373106 H        1 UNL1     0.0623
     45 H         -9.037054   4.276342   8.176317 H        1 UNL1     0.2921
     46 H         -5.415652   -4.047251   6.398312 H        1 UNL1     0.2922
     47 H         0.511576   0.322425   2.257766 H        1 UNL1     0.2126
     48 H         1.210186   -1.820633   -0.397128 H        1 UNL1     0.2101
     49 H         -2.030716   0.952134   -0.879123 H        1 UNL1     0.2100
     50 H         -2.706801   -3.319705   -1.210881 H        1 UNL1     0.2102
@<TRIPOS>BOND
     1     1     2    1
     2     1     6    1
     3     2     3    1
     4     3     4    1
     5     3    29    1
     6     3    33    1
     7     4     5    1
     8     5     6    1
     9     5     7    1
    10     5    35    1
    11     7     8    1
    12     8     9   ar
    13     8    13   ar
    14     9    10   ar
    15     9    36    1
    16    10    11   ar
    17    10    26    1
    18    11    12   ar
    19    11    14    1
    20    12    13   ar
    21    12    17    1
    22    13    37    1
    23    14    15    1
    24    14    25    2
    25    15    16    1
    26    15    38    1
    27    15    39    1
    28    16    17    1
    29    16    18    1
    30    16    40    1
    31    18    19   ar
    32    18    23   ar
    33    19    20   ar
    34    19    41    1
    35    20    21   ar
    36    20    42    1
    37    21    22   ar
    38    21    24    1
    39    22    23   ar
    40    22    43    1
    41    23    44    1
    42    24    45    1
    43    26    46    1
    44    27    47    1
    45    28    48    1
    46    29    49    1
    47    30    50    1
    48     1    31    1
    49     1    27    1
    50     2    32    1
    51     2    28    1
    52     4    34    1
    53     4    30    1
