@<TRIPOS>MOLECULE
*****
 50 53 0 0 0
SMALL
GASTEIGER

@<TRIPOS>ATOM
     1 C         -0.349923   -1.338293   1.690364 C.3        1 UNL1     0.1889
     2 C         -0.471374   -0.972933   0.186468 C.3        1 UNL1     0.1342
     3 C         -1.909895   -0.944287   -0.352328 C.3        1 UNL1     0.1174
     4 C         -2.807668   -2.001026   0.296072 C.3        1 UNL1     0.1456
     5 C         -2.662439   -2.039188   1.828331 C.3        1 UNL1     0.2326
     6 O         -1.300832   -2.271337   2.181889 O.3        1 UNL1     -0.3076
     7 O         -3.230379   -0.892308   2.486686 O.3        1 UNL1     -0.4605
     8 C         -3.754007   -1.114693   3.747593 C.ar        1 UNL1     0.1310
     9 C         -4.585671   -2.182094   4.102967 C.ar        1 UNL1     0.0226
     10 C         -5.052162   -2.330554   5.414549 C.ar        1 UNL1     0.1343
     11 C         -4.678579   -1.42754   6.408954 C.ar        1 UNL1     0.1007
     12 C         -3.881859   -0.334683   6.057264 C.ar        1 UNL1     0.1389
     13 C         -3.415092   -0.184164   4.737831 C.ar        1 UNL1     0.0229
     14 C         -5.073809   -1.583333   7.827995 C.2        1 UNL1     0.1740
     15 C         -4.40301   -0.652267   8.794791 C.3        1 UNL1     0.0520
     16 C         -4.31241   0.725352   8.152986 C.3        1 UNL1     0.1322
     17 O         -3.543355   0.672268   6.931182 O.3        1 UNL1     -0.4828
     18 C         -5.662637   1.43426   8.022365 C.ar        1 UNL1     -0.0067
     19 C         -6.022941   2.016102   6.789541 C.ar        1 UNL1     -0.0516
     20 C         -7.229215   2.712655   6.649258 C.ar        1 UNL1     -0.0198
     21 C         -8.078479   2.840413   7.733811 C.ar        1 UNL1     0.1169
     22 C         -7.766911   2.2499   8.95162 C.ar        1 UNL1     -0.0198
     23 C         -6.569308   1.537547   9.087107 C.ar        1 UNL1     -0.0516
     24 O         -9.226702   3.558096   7.569748 O.3        1 UNL1     -0.5068
     25 O         -5.836133   -2.460625   8.225116 O.2        1 UNL1     -0.2917
     26 O         -5.861052   -3.392792   5.695497 O.3        1 UNL1     -0.5058
     27 O         -0.238478   -0.207365   2.539697 O.3        1 UNL1     -0.3648
     28 O         0.254006   -1.951685   -0.580718 O.3        1 UNL1     -0.3841
     29 O         -2.456624   0.373355   -0.268425 O.3        1 UNL1     -0.3863
     30 O         -2.46892   -3.30072   -0.234717 O.3        1 UNL1     -0.3829
     31 H         0.60593   -1.860093   1.809317 H        1 UNL1     0.0937
     32 H         0.0   0.0   0.0 H        1 UNL1     0.0671
     33 H         -1.870577   -1.176045   -1.425856 H        1 UNL1     0.0649
     34 H         -3.85522   -1.811945   0.036681 H        1 UNL1     0.0683
     35 H         -3.22586   -2.932644   2.125267 H        1 UNL1     0.1085
     36 H         -4.866367   -2.948512   3.38887 H        1 UNL1     0.0691
     37 H         -2.79706   0.675973   4.489449 H        1 UNL1     0.0691
     38 H         -3.407009   -1.055725   9.006284 H        1 UNL1     0.0385
     39 H         -4.971464   -0.636335   9.730945 H        1 UNL1     0.0385
     40 H         -3.716344   1.357134   8.825352 H        1 UNL1     0.0789
     41 H         -5.369302   1.937692   5.925679 H        1 UNL1     0.0623
     42 H         -7.490256   3.167038   5.69668 H        1 UNL1     0.0654
     43 H         -8.431802   2.330961   9.803242 H        1 UNL1     0.0654
     44 H         -6.362841   1.080158   10.049921 H        1 UNL1     0.0623
     45 H         -8.987924   4.468305   7.330541 H        1 UNL1     0.2921
     46 H         -5.470174   -3.916253   6.412864 H        1 UNL1     0.2922
     47 H         0.504328   0.34722   2.263047 H        1 UNL1     0.2126
     48 H         1.189649   -1.882117   -0.309674 H        1 UNL1     0.2101
     49 H         -2.01617   0.954782   -0.908531 H        1 UNL1     0.2100
     50 H         -2.703704   -3.308529   -1.185784 H        1 UNL1     0.2102
@<TRIPOS>BOND
     1     1     2    1
     2     1     6    1
     3     2     3    1
     4     3     4    1
     5     3    29    1
     6     3    33    1
     7     4     5    1
     8     5     6    1
     9     5     7    1
    10     5    35    1
    11     7     8    1
    12     8     9   ar
    13     8    13   ar
    14     9    10   ar
    15     9    36    1
    16    10    11   ar
    17    10    26    1
    18    11    12   ar
    19    11    14    1
    20    12    13   ar
    21    12    17    1
    22    13    37    1
    23    14    15    1
    24    14    25    2
    25    15    16    1
    26    15    38    1
    27    15    39    1
    28    16    17    1
    29    16    18    1
    30    16    40    1
    31    18    19   ar
    32    18    23   ar
    33    19    20   ar
    34    19    41    1
    35    20    21   ar
    36    20    42    1
    37    21    22   ar
    38    21    24    1
    39    22    23   ar
    40    22    43    1
    41    23    44    1
    42    24    45    1
    43    26    46    1
    44    27    47    1
    45    28    48    1
    46    29    49    1
    47    30    50    1
    48     1    31    1
    49     1    27    1
    50     2    32    1
    51     2    28    1
    52     4    34    1
    53     4    30    1
