@<TRIPOS>MOLECULE
*****
 50 53 0 0 0
SMALL
GASTEIGER

@<TRIPOS>ATOM
     1 C         -0.355328   -1.329511   1.696156 C.3        1 UNL1     0.1889
     2 C         -0.490278   -0.962073   0.193919 C.3        1 UNL1     0.1342
     3 C         -1.935429   -0.901441   -0.324087 C.3        1 UNL1     0.1174
     4 C         -2.847159   -1.93759   0.337926 C.3        1 UNL1     0.1456
     5 C         -2.68071   -1.978432   1.867956 C.3        1 UNL1     0.2326
     6 O         -1.319674   -2.240863   2.201991 O.3        1 UNL1     -0.3076
     7 O         -3.213288   -0.818891   2.533647 O.3        1 UNL1     -0.4605
     8 C         -3.723498   -1.029043   3.80213 C.ar        1 UNL1     0.1310
     9 C         -4.573613   -2.077437   4.170201 C.ar        1 UNL1     0.0226
     10 C         -5.024321   -2.214942   5.488479 C.ar        1 UNL1     0.1343
     11 C         -4.616311   -1.320151   6.476769 C.ar        1 UNL1     0.1007
     12 C         -3.800505   -0.245525   6.112869 C.ar        1 UNL1     0.1389
     13 C         -3.349589   -0.10597   4.786736 C.ar        1 UNL1     0.0229
     14 C         -4.994396   -1.466543   7.901471 C.2        1 UNL1     0.1740
     15 C         -4.289048   -0.550368   8.857847 C.3        1 UNL1     0.0520
     16 C         -4.17693   0.824644   8.213855 C.3        1 UNL1     0.1322
     17 O         -3.426977   0.753918   6.981119 O.3        1 UNL1     -0.4828
     18 C         -5.512707   1.563541   8.102241 C.ar        1 UNL1     -0.0067
     19 C         -5.87094   2.165654   6.878582 C.ar        1 UNL1     -0.0516
     20 C         -7.063149   2.889225   6.755922 C.ar        1 UNL1     -0.0198
     21 C         -7.900206   3.023879   7.849097 C.ar        1 UNL1     0.1169
     22 C         -7.591009   2.414294   9.058081 C.ar        1 UNL1     -0.0198
     23 C         -6.407849   1.675162   9.175859 C.ar        1 UNL1     -0.0516
     24 O         -9.034129   3.767579   7.702367 O.3        1 UNL1     -0.5068
     25 O         -5.77034   -2.326412   8.310153 O.2        1 UNL1     -0.2917
     26 O         -5.852629   -3.258711   5.781798 O.3        1 UNL1     -0.5058
     27 O         -0.20636   -0.20105   2.543015 O.3        1 UNL1     -0.3648
     28 O         0.201872   -1.957092   -0.58298 O.3        1 UNL1     -0.3841
     29 O         -2.451277   0.428135   -0.23321 O.3        1 UNL1     -0.3863
     30 O         -2.545269   -3.244731   -0.196801 O.3        1 UNL1     -0.3829
     31 H         0.590231   -1.872526   1.801666 H        1 UNL1     0.0937
     32 H         0.0   0.0   0.0 H        1 UNL1     0.0671
     33 H         -1.91681   -1.134413   -1.397911 H        1 UNL1     0.0649
     34 H         -3.893856   -1.725209   0.093546 H        1 UNL1     0.0683
     35 H         -3.25963   -2.858949   2.173604 H        1 UNL1     0.1085
     36 H         -4.881665   -2.837642   3.460756 H        1 UNL1     0.0691
     37 H         -2.716122   0.740032   4.528871 H        1 UNL1     0.0691
     38 H         -3.299371   -0.975936   9.055227 H        1 UNL1     0.0385
     39 H         -4.843426   -0.521378   9.802094 H        1 UNL1     0.0385
     40 H         -3.557234   1.443175   8.877116 H        1 UNL1     0.0789
     41 H         -5.226517   2.082232   6.008288 H        1 UNL1     0.0623
     42 H         -7.322493   3.358899   5.810322 H        1 UNL1     0.0654
     43 H         -8.246728   2.500732   9.91626 H        1 UNL1     0.0654
     44 H         -6.203043   1.203543   10.132141 H        1 UNL1     0.0623
     45 H         -8.777376   4.680092   7.49233 H        1 UNL1     0.2921
     46 H         -5.463241   -3.790526   6.493811 H        1 UNL1     0.2922
     47 H         0.544594   0.336673   2.255295 H        1 UNL1     0.2126
     48 H         1.146132   -1.892957   -0.342165 H        1 UNL1     0.2101
     49 H         -2.007216   0.999328   -0.880004 H        1 UNL1     0.2100
     50 H         -2.793878   -3.247632   -1.144376 H        1 UNL1     0.2102
@<TRIPOS>BOND
     1     1     2    1
     2     1     6    1
     3     2     3    1
     4     3     4    1
     5     3    29    1
     6     3    33    1
     7     4     5    1
     8     5     6    1
     9     5     7    1
    10     5    35    1
    11     7     8    1
    12     8     9   ar
    13     8    13   ar
    14     9    10   ar
    15     9    36    1
    16    10    11   ar
    17    10    26    1
    18    11    12   ar
    19    11    14    1
    20    12    13   ar
    21    12    17    1
    22    13    37    1
    23    14    15    1
    24    14    25    2
    25    15    16    1
    26    15    38    1
    27    15    39    1
    28    16    17    1
    29    16    18    1
    30    16    40    1
    31    18    19   ar
    32    18    23   ar
    33    19    20   ar
    34    19    41    1
    35    20    21   ar
    36    20    42    1
    37    21    22   ar
    38    21    24    1
    39    22    23   ar
    40    22    43    1
    41    23    44    1
    42    24    45    1
    43    26    46    1
    44    27    47    1
    45    28    48    1
    46    29    49    1
    47    30    50    1
    48     1    31    1
    49     1    27    1
    50     2    32    1
    51     2    28    1
    52     4    34    1
    53     4    30    1
