@<TRIPOS>MOLECULE
*****
 50 53 0 0 0
SMALL
GASTEIGER

@<TRIPOS>ATOM
     1 C         -0.350431   -1.338522   1.690077 C.3        1 UNL1     0.1889
     2 C         -0.471641   -0.972847   0.186239 C.3        1 UNL1     0.1342
     3 C         -1.910101   -0.943733   -0.352695 C.3        1 UNL1     0.1174
     4 C         -2.808208   -2.000365   0.295419 C.3        1 UNL1     0.1456
     5 C         -2.663139   -2.038852   1.827684 C.3        1 UNL1     0.2326
     6 O         -1.301627   -2.271415   2.181333 O.3        1 UNL1     -0.3076
     7 O         -3.230852   -0.891952   2.486199 O.3        1 UNL1     -0.4605
     8 C         -3.758055   -1.115227   3.745458 C.ar        1 UNL1     0.1310
     9 C         -4.592388   -2.181741   4.097221 C.ar        1 UNL1     0.0226
     10 C         -5.06246   -2.331257   5.407404 C.ar        1 UNL1     0.1343
     11 C         -4.689912   -1.430254   6.40402 C.ar        1 UNL1     0.1007
     12 C         -3.890491   -0.338232   6.055887 C.ar        1 UNL1     0.1389
     13 C         -3.420119   -0.186646   4.737857 C.ar        1 UNL1     0.0229
     14 C         -5.08901   -1.587372   7.821831 C.2        1 UNL1     0.1740
     15 C         -4.419132   -0.658773   8.791632 C.3        1 UNL1     0.0520
     16 C         -4.324616   0.719589   8.15199 C.3        1 UNL1     0.1322
     17 O         -3.552543   0.666934   6.932072 O.3        1 UNL1     -0.4828
     18 C         -5.67333   1.43092   8.01893 C.ar        1 UNL1     -0.0067
     19 C         -6.023142   2.028012   6.790384 C.ar        1 UNL1     -0.0516
     20 C         -7.227835   2.727013   6.648697 C.ar        1 UNL1     -0.0198
     21 C         -8.085937   2.842067   7.727702 C.ar        1 UNL1     0.1169
     22 C         -7.784739   2.23652   8.940728 C.ar        1 UNL1     -0.0198
     23 C         -6.588686   1.521785   9.077354 C.ar        1 UNL1     -0.0516
     24 O         -9.232373   3.562449   7.562973 O.3        1 UNL1     -0.5068
     25 O         -5.853794   -2.463951   8.215784 O.2        1 UNL1     -0.2917
     26 O         -5.873821   -3.392542   5.684807 O.3        1 UNL1     -0.5058
     27 O         -0.238781   -0.207782   2.539634 O.3        1 UNL1     -0.3648
     28 O         0.253565   -1.95164   -0.58106 O.3        1 UNL1     -0.3841
     29 O         -2.456502   0.374032   -0.268597 O.3        1 UNL1     -0.3863
     30 O         -2.469739   -3.300045   -0.235581 O.3        1 UNL1     -0.3829
     31 H         0.605276   -1.860588   1.809027 H        1 UNL1     0.0937
     32 H         0.0   0.0   0.0 H        1 UNL1     0.0671
     33 H         -1.870736   -1.1753   -1.426262 H        1 UNL1     0.0649
     34 H         -3.855686   -1.810968   0.03596 H        1 UNL1     0.0683
     35 H         -3.226818   -2.932221   2.124397 H        1 UNL1     0.1085
     36 H         -4.872535   -2.946694   3.381341 H        1 UNL1     0.0691
     37 H         -2.800033   0.67281   4.492252 H        1 UNL1     0.0691
     38 H         -3.424342   -1.064179   9.005092 H        1 UNL1     0.0385
     39 H         -4.989939   -0.643204   9.72636 H        1 UNL1     0.0385
     40 H         -3.729216   1.349441   8.826753 H        1 UNL1     0.0789
     41 H         -5.36245   1.959733   5.931039 H        1 UNL1     0.0623
     42 H         -7.480768   3.193168   5.699625 H        1 UNL1     0.0654
     43 H         -8.45658   2.307606   9.787774 H        1 UNL1     0.0654
     44 H         -6.390412   1.052535   10.036175 H        1 UNL1     0.0623
     45 H         -8.99113   4.475357   7.33688 H        1 UNL1     0.2921
     46 H         -5.485638   -3.917653   6.402431 H        1 UNL1     0.2922
     47 H         0.497361   0.35237   2.256467 H        1 UNL1     0.2126
     48 H         1.192577   -1.866852   -0.326504 H        1 UNL1     0.2101
     49 H         -2.015837   0.955468   -0.908551 H        1 UNL1     0.2100
     50 H         -2.704431   -3.307616   -1.186673 H        1 UNL1     0.2102
@<TRIPOS>BOND
     1     1     2    1
     2     1     6    1
     3     2     3    1
     4     3     4    1
     5     3    29    1
     6     3    33    1
     7     4     5    1
     8     5     6    1
     9     5     7    1
    10     5    35    1
    11     7     8    1
    12     8     9   ar
    13     8    13   ar
    14     9    10   ar
    15     9    36    1
    16    10    11   ar
    17    10    26    1
    18    11    12   ar
    19    11    14    1
    20    12    13   ar
    21    12    17    1
    22    13    37    1
    23    14    15    1
    24    14    25    2
    25    15    16    1
    26    15    38    1
    27    15    39    1
    28    16    17    1
    29    16    18    1
    30    16    40    1
    31    18    19   ar
    32    18    23   ar
    33    19    20   ar
    34    19    41    1
    35    20    21   ar
    36    20    42    1
    37    21    22   ar
    38    21    24    1
    39    22    23   ar
    40    22    43    1
    41    23    44    1
    42    24    45    1
    43    26    46    1
    44    27    47    1
    45    28    48    1
    46    29    49    1
    47    30    50    1
    48     1    31    1
    49     1    27    1
    50     2    32    1
    51     2    28    1
    52     4    34    1
    53     4    30    1
