@<TRIPOS>MOLECULE
*****
 50 53 0 0 0
SMALL
GASTEIGER

@<TRIPOS>ATOM
     1 C         -0.483711   -1.237228   1.733809 C.3        1 UNL1     0.1889
     2 C         -0.499287   -0.954592   0.207436 C.3        1 UNL1     0.1342
     3 C         -1.898379   -0.936603   -0.427136 C.3        1 UNL1     0.1174
     4 C         -2.855016   -1.943385   0.216565 C.3        1 UNL1     0.1456
     5 C         -2.811977   -1.898101   1.754896 C.3        1 UNL1     0.2326
     6 O         -1.480878   -2.128539   2.210904 O.3        1 UNL1     -0.3076
     7 O         -3.402392   -0.708779   2.310093 O.3        1 UNL1     -0.4605
     8 C         -4.015187   -0.854338   3.541686 C.ar        1 UNL1     0.1310
     9 C         -4.883394   -1.892185   3.897201 C.ar        1 UNL1     0.0226
     10 C         -5.441749   -1.96158   5.179124 C.ar        1 UNL1     0.1343
     11 C         -5.126369   -1.006934   6.145057 C.ar        1 UNL1     0.1007
     12 C         -4.292942   0.056854   5.789335 C.ar        1 UNL1     0.1389
     13 C         -3.73374   0.127857   4.499497 C.ar        1 UNL1     0.0229
     14 C         -5.6212   -1.07819   7.53941 C.2        1 UNL1     0.1740
     15 C         -5.007063   -0.099818   8.497101 C.3        1 UNL1     0.0520
     16 C         -4.854123   1.238202   7.786982 C.3        1 UNL1     0.1322
     17 O         -4.002827   1.108734   6.62698 O.3        1 UNL1     -0.4828
     18 C         -6.182643   1.950813   7.522512 C.ar        1 UNL1     -0.0067
     19 C         -6.219183   3.036571   6.62362 C.ar        1 UNL1     -0.0516
     20 C         -7.407715   3.740224   6.395085 C.ar        1 UNL1     -0.0198
     21 C         -8.562167   3.373424   7.063311 C.ar        1 UNL1     0.1169
     22 C         -8.56548   2.287597   7.929225 C.ar        1 UNL1     -0.0198
     23 C         -7.381343   1.572214   8.143942 C.ar        1 UNL1     -0.0516
     24 O         -9.691762   4.105766   6.84401 O.3        1 UNL1     -0.5068
     25 O         -6.420656   -1.924503   7.930702 O.2        1 UNL1     -0.2917
     26 O         -6.282003   -2.998711   5.46182 O.3        1 UNL1     -0.5058
     27 O         -0.409211   -0.062357   2.525587 O.3        1 UNL1     -0.3648
     28 O         0.258274   -1.984247   -0.454846 O.3        1 UNL1     -0.3841
     29 O         -2.426763   0.39092   -0.452161 O.3        1 UNL1     -0.3863
     30 O         -2.504306   -3.275074   -0.218518 O.3        1 UNL1     -0.3829
     31 H         0.453103   -1.764435   1.944786 H        1 UNL1     0.0937
     32 H         0.0   0.0   0.0 H        1 UNL1     0.0671
     33 H         -1.79223   -1.228302   -1.481349 H        1 UNL1     0.0649
     34 H         -3.879751   -1.754935   -0.122266 H        1 UNL1     0.0683
     35 H         -3.409028   -2.765953   2.061884 H        1 UNL1     0.1085
     36 H         -5.123803   -2.695371   3.209295 H        1 UNL1     0.0691
     37 H         -3.088769   0.966813   4.247194 H        1 UNL1     0.0691
     38 H         -4.03351   -0.499659   8.800164 H        1 UNL1     0.0385
     39 H         -5.638905   -0.025509   9.388746 H        1 UNL1     0.0385
     40 H         -4.297992   1.90173   8.462977 H        1 UNL1     0.0789
     41 H         -5.324401   3.349888   6.093669 H        1 UNL1     0.0623
     42 H         -7.420329   4.583158   5.708562 H        1 UNL1     0.0654
     43 H         -9.467388   1.982406   8.446265 H        1 UNL1     0.0654
     44 H         -7.422756   0.722837   8.818988 H        1 UNL1     0.0623
     45 H         -9.545477   5.00396   7.182484 H        1 UNL1     0.2921
     46 H         -5.96084   -3.47066   6.246377 H        1 UNL1     0.2922
     47 H         0.353373   0.471303   2.261896 H        1 UNL1     0.2126
     48 H         1.187809   -1.869302   -0.178288 H        1 UNL1     0.2101
     49 H         -1.935308   0.929707   -1.092453 H        1 UNL1     0.2100
     50 H         -2.697152   -3.339747   -1.176819 H        1 UNL1     0.2102
@<TRIPOS>BOND
     1     1     2    1
     2     1     6    1
     3     2     3    1
     4     3     4    1
     5     3    29    1
     6     3    33    1
     7     4     5    1
     8     5     6    1
     9     5     7    1
    10     5    35    1
    11     7     8    1
    12     8     9   ar
    13     8    13   ar
    14     9    10   ar
    15     9    36    1
    16    10    11   ar
    17    10    26    1
    18    11    12   ar
    19    11    14    1
    20    12    13   ar
    21    12    17    1
    22    13    37    1
    23    14    15    1
    24    14    25    2
    25    15    16    1
    26    15    38    1
    27    15    39    1
    28    16    17    1
    29    16    18    1
    30    16    40    1
    31    18    19   ar
    32    18    23   ar
    33    19    20   ar
    34    19    41    1
    35    20    21   ar
    36    20    42    1
    37    21    22   ar
    38    21    24    1
    39    22    23   ar
    40    22    43    1
    41    23    44    1
    42    24    45    1
    43    26    46    1
    44    27    47    1
    45    28    48    1
    46    29    49    1
    47    30    50    1
    48     1    31    1
    49     1    27    1
    50     2    32    1
    51     2    28    1
    52     4    34    1
    53     4    30    1
