@<TRIPOS>MOLECULE
*****
 50 53 0 0 0
SMALL
GASTEIGER

@<TRIPOS>ATOM
     1 C         -0.169169   -1.236729   1.792397 C.3        1 UNL1     0.1889
     2 C         -0.371074   -0.995894   0.272143 C.3        1 UNL1     0.1342
     3 C         -1.821784   -1.139882   -0.212803 C.3        1 UNL1     0.1174
     4 C         -2.594928   -2.224324   0.54175 C.3        1 UNL1     0.1456
     5 C         -2.399493   -2.135966   2.066336 C.3        1 UNL1     0.2326
     6 O         -1.011751   -2.214798   2.383864 O.3        1 UNL1     -0.3076
     7 O         -3.052956   -1.001031   2.663186 O.3        1 UNL1     -0.4605
     8 C         -3.506846   -1.174724   3.958309 C.ar        1 UNL1     0.1310
     9 C         -4.21686   -2.285787   4.425985 C.ar        1 UNL1     0.0226
     10 C         -4.61934   -2.376801   5.763755 C.ar        1 UNL1     0.1343
     11 C         -4.300518   -1.368833   6.672707 C.ar        1 UNL1     0.1007
     12 C         -3.627617   -0.235536   6.20835 C.ar        1 UNL1     0.1389
     13 C         -3.225344   -0.143055   4.862596 C.ar        1 UNL1     0.0229
     14 C         -4.627561   -1.452124   8.115018 C.2        1 UNL1     0.1740
     15 C         -4.016872   -0.39024   8.981625 C.3        1 UNL1     0.0520
     16 C         -4.084489   0.936466   8.237827 C.3        1 UNL1     0.1322
     17 O         -3.358162   0.863025   6.991181 O.3        1 UNL1     -0.4828
     18 C         -5.501388   1.50199   8.114114 C.ar        1 UNL1     -0.0067
     19 C         -5.961761   1.948177   6.858253 C.ar        1 UNL1     -0.0516
     20 C         -7.23464   2.514293   6.719494 C.ar        1 UNL1     -0.0198
     21 C         -8.05199   2.646228   7.827808 C.ar        1 UNL1     0.1169
     22 C         -7.63979   2.185644   9.071509 C.ar        1 UNL1     -0.0198
     23 C         -6.374167   1.60265   9.207055 C.ar        1 UNL1     -0.0516
     24 O         -9.27007   3.236929   7.661217 O.3        1 UNL1     -0.5068
     25 O         -5.285712   -2.36472   8.607454 O.2        1 UNL1     -0.2917
     26 O         -5.309873   -3.486286   6.155917 O.3        1 UNL1     -0.5058
     27 O         -0.13922   -0.040873   2.555167 O.3        1 UNL1     -0.3648
     28 O         0.419752   -1.957363   -0.450959 O.3        1 UNL1     -0.3841
     29 O         -2.48806   0.124269   -0.201395 O.3        1 UNL1     -0.3863
     30 O         -2.151097   -3.522758   0.091448 O.3        1 UNL1     -0.3829
     31 H         0.835044   -1.657908   1.911744 H        1 UNL1     0.0937
     32 H         0.0   0.0   0.0 H        1 UNL1     0.0671
     33 H         -1.793848   -1.445456   -1.268059 H        1 UNL1     0.0649
     34 H         -3.663192   -2.152341   0.309301 H        1 UNL1     0.0683
     35 H         -2.866276   -3.053297   2.446461 H        1 UNL1     0.1085
     36 H         -4.446627   -3.127871   3.782385 H        1 UNL1     0.0691
     37 H         -2.703698   0.750234   4.525825 H        1 UNL1     0.0691
     38 H         -2.979254   -0.679992   9.178904 H        1 UNL1     0.0385
     39 H         -4.55028   -0.356553   9.937721 H        1 UNL1     0.0385
     40 H         -3.529392   1.671633   8.836088 H        1 UNL1     0.0789
     41 H         -5.335698   1.864104   5.974721 H        1 UNL1     0.0623
     42 H         -7.573566   2.865463   5.74799 H        1 UNL1     0.0654
     43 H         -8.277751   2.270318   9.943144 H        1 UNL1     0.0654
     44 H         -6.088848   1.244142   10.191387 H        1 UNL1     0.0623
     45 H         -9.129557   4.167379   7.421977 H        1 UNL1     0.2921
     46 H         -4.843328   -3.914718   6.890896 H        1 UNL1     0.2922
     47 H         0.545429   0.553924   2.218518 H        1 UNL1     0.2126
     48 H         1.350863   -1.795295   -0.204995 H        1 UNL1     0.2101
     49 H         -2.11886   0.69814   -0.891437 H        1 UNL1     0.2100
     50 H         -2.408344   -3.619958   -0.848812 H        1 UNL1     0.2102
@<TRIPOS>BOND
     1     1     2    1
     2     1     6    1
     3     2     3    1
     4     3     4    1
     5     3    29    1
     6     3    33    1
     7     4     5    1
     8     5     6    1
     9     5     7    1
    10     5    35    1
    11     7     8    1
    12     8     9   ar
    13     8    13   ar
    14     9    10   ar
    15     9    36    1
    16    10    11   ar
    17    10    26    1
    18    11    12   ar
    19    11    14    1
    20    12    13   ar
    21    12    17    1
    22    13    37    1
    23    14    15    1
    24    14    25    2
    25    15    16    1
    26    15    38    1
    27    15    39    1
    28    16    17    1
    29    16    18    1
    30    16    40    1
    31    18    19   ar
    32    18    23   ar
    33    19    20   ar
    34    19    41    1
    35    20    21   ar
    36    20    42    1
    37    21    22   ar
    38    21    24    1
    39    22    23   ar
    40    22    43    1
    41    23    44    1
    42    24    45    1
    43    26    46    1
    44    27    47    1
    45    28    48    1
    46    29    49    1
    47    30    50    1
    48     1    31    1
    49     1    27    1
    50     2    32    1
    51     2    28    1
    52     4    34    1
    53     4    30    1
