@<TRIPOS>MOLECULE
*****
 50 53 0 0 0
SMALL
GASTEIGER

@<TRIPOS>ATOM
     1 C         -2.167638   -0.234677   -0.130679 C.3        1 UNL1     0.1889
     2 C         -0.781201   0.049415   -0.768664 C.3        1 UNL1     0.1342
     3 C         -0.67693   1.394717   -1.503344 C.3        1 UNL1     0.1174
     4 C         -1.98138   1.794636   -2.197312 C.3        1 UNL1     0.1456
     5 C         -3.211796   1.616122   -1.289253 C.3        1 UNL1     0.2326
     6 O         -3.291947   0.265592   -0.839238 O.3        1 UNL1     -0.3076
     7 O         -3.277163   2.574499   -0.217543 O.3        1 UNL1     -0.4605
     8 C         -4.546807   2.93858   0.193526 C.ar        1 UNL1     0.1310
     9 C         -5.608032   3.27384   -0.654238 C.ar        1 UNL1     0.0226
     10 C         -6.865288   3.61337   -0.140499 C.ar        1 UNL1     0.1343
     11 C         -7.098635   3.602746   1.234011 C.ar        1 UNL1     0.1007
     12 C         -6.035554   3.309537   2.092306 C.ar        1 UNL1     0.1389
     13 C         -4.770775   2.970748   1.575598 C.ar        1 UNL1     0.0229
     14 C         -8.42915   3.871407   1.827058 C.2        1 UNL1     0.1740
     15 C         -8.551436   3.599398   3.297638 C.3        1 UNL1     0.0520
     16 C         -7.277423   4.073943   3.982952 C.3        1 UNL1     0.1322
     17 O         -6.124803   3.374908   3.463447 O.3        1 UNL1     -0.4828
     18 C         -7.130403   5.596911   4.023933 C.ar        1 UNL1     -0.0067
     19 C         -5.913051   6.186133   3.625079 C.ar        1 UNL1     -0.0516
     20 C         -5.728945   7.57219   3.695188 C.ar        1 UNL1     -0.0198
     21 C         -6.749602   8.377377   4.168221 C.ar        1 UNL1     0.1169
     22 C         -7.971567   7.829873   4.53684 C.ar        1 UNL1     -0.0198
     23 C         -8.162369   6.445673   4.449424 C.ar        1 UNL1     -0.0516
     24 O         -6.520548   9.718975   4.257951 O.3        1 UNL1     -0.5068
     25 O         -9.406028   4.216891   1.167637 O.2        1 UNL1     -0.2917
     26 O         -7.857819   3.931475   -1.020996 O.3        1 UNL1     -0.5058
     27 O         -2.231933   0.088633   1.249221 O.3        1 UNL1     -0.3648
     28 O         -0.500146   -0.985914   -1.728772 O.3        1 UNL1     -0.3841
     29 O         -0.179791   2.411617   -0.631048 O.3        1 UNL1     -0.3863
     30 O         -2.156218   0.984855   -3.380265 O.3        1 UNL1     -0.3829
     31 H         -2.308915   -1.320612   -0.160066 H        1 UNL1     0.0937
     32 H         0.0   0.0   0.0 H        1 UNL1     0.0671
     33 H         0.082414   1.288861   -2.290688 H        1 UNL1     0.0649
     34 H         -1.924423   2.837518   -2.528299 H        1 UNL1     0.0683
     35 H         -4.063011   1.779162   -1.962105 H        1 UNL1     0.1085
     36 H         -5.506181   3.246405   -1.733587 H        1 UNL1     0.0691
     37 H         -3.959337   2.747611   2.264997 H        1 UNL1     0.0691
     38 H         -8.689727   2.520363   3.424475 H        1 UNL1     0.0385
     39 H         -9.442555   4.106142   3.683508 H        1 UNL1     0.0385
     40 H         -7.338656   3.759538   5.033628 H        1 UNL1     0.0789
     41 H         -5.093325   5.574948   3.258811 H        1 UNL1     0.0623
     42 H         -4.781438   8.013413   3.395915 H        1 UNL1     0.0654
     43 H         -8.782782   8.452728   4.894458 H        1 UNL1     0.0654
     44 H         -9.133348   6.053172   4.735757 H        1 UNL1     0.0623
     45 H         -5.776825   9.863185   4.865237 H        1 UNL1     0.2921
     46 H         -8.619003   3.347743   -0.875164 H        1 UNL1     0.2922
     47 H         -1.539348   -0.380065   1.735541 H        1 UNL1     0.2126
     48 H         -0.477118   -1.827516   -1.23389 H        1 UNL1     0.2101
     49 H         0.752938   2.241663   -0.42386 H        1 UNL1     0.2100
     50 H         -1.440937   1.212362   -4.00981 H        1 UNL1     0.2102
@<TRIPOS>BOND
     1     1     2    1
     2     1     6    1
     3     2     3    1
     4     3     4    1
     5     3    29    1
     6     3    33    1
     7     4     5    1
     8     5     6    1
     9     5     7    1
    10     5    35    1
    11     7     8    1
    12     8     9   ar
    13     8    13   ar
    14     9    10   ar
    15     9    36    1
    16    10    11   ar
    17    10    26    1
    18    11    12   ar
    19    11    14    1
    20    12    13   ar
    21    12    17    1
    22    13    37    1
    23    14    15    1
    24    14    25    2
    25    15    16    1
    26    15    38    1
    27    15    39    1
    28    16    17    1
    29    16    18    1
    30    16    40    1
    31    18    19   ar
    32    18    23   ar
    33    19    20   ar
    34    19    41    1
    35    20    21   ar
    36    20    42    1
    37    21    22   ar
    38    21    24    1
    39    22    23   ar
    40    22    43    1
    41    23    44    1
    42    24    45    1
    43    26    46    1
    44    27    47    1
    45    28    48    1
    46    29    49    1
    47    30    50    1
    48     1    31    1
    49     1    27    1
    50     2    32    1
    51     2    28    1
    52     4    34    1
    53     4    30    1
