@<TRIPOS>MOLECULE
*****
 50 53 0 0 0
SMALL
GASTEIGER

@<TRIPOS>ATOM
     1 C         1.640944   -1.053788   -0.983687 C.3        1 UNL1     0.1889
     2 C         0.138088   -0.885332   -0.632993 C.3        1 UNL1     0.1342
     3 C         -0.499056   -2.100239   0.058755 C.3        1 UNL1     0.1174
     4 C         0.068798   -3.431843   -0.438727 C.3        1 UNL1     0.1456
     5 C         1.606673   -3.427349   -0.511408 C.3        1 UNL1     0.2326
     6 O         2.05054   -2.363141   -1.350045 O.3        1 UNL1     -0.3076
     7 O         2.241587   -3.432461   0.780173 O.3        1 UNL1     -0.4605
     8 C         2.923106   -2.279204   1.125219 C.ar        1 UNL1     0.1310
     9 C         3.019223   -1.750489   2.416932 C.ar        1 UNL1     0.0226
     10 C         3.749133   -0.582644   2.668473 C.ar        1 UNL1     0.1343
     11 C         4.421049   0.072295   1.637248 C.ar        1 UNL1     0.1007
     12 C         4.298639   -0.423149   0.33635 C.ar        1 UNL1     0.1389
     13 C         3.56248   -1.595943   0.083261 C.ar        1 UNL1     0.0229
     14 C         5.275069   1.261832   1.860418 C.2        1 UNL1     0.1740
     15 C         6.096596   1.701208   0.684156 C.3        1 UNL1     0.0520
     16 C         5.247064   1.570729   -0.572517 C.3        1 UNL1     0.1322
     17 O         4.828303   0.202053   -0.768568 O.3        1 UNL1     -0.4828
     18 C         4.116745   2.598911   -0.661659 C.ar        1 UNL1     -0.0067
     19 C         4.414349   3.924208   -1.040121 C.ar        1 UNL1     -0.0516
     20 C         3.412009   4.900529   -1.085669 C.ar        1 UNL1     -0.0198
     21 C         2.112457   4.566668   -0.748729 C.ar        1 UNL1     0.1169
     22 C         1.782143   3.262382   -0.40439 C.ar        1 UNL1     -0.0198
     23 C         2.780892   2.281676   -0.37661 C.ar        1 UNL1     -0.0516
     24 O         1.170144   5.552605   -0.768083 O.3        1 UNL1     -0.5068
     25 O         5.383887   1.821545   2.948243 O.2        1 UNL1     -0.2917
     26 O         3.802631   -0.118523   3.950391 O.3        1 UNL1     -0.5058
     27 O         2.513407   -0.4819   -0.022157 O.3        1 UNL1     -0.3648
     28 O         -0.59181   -0.655126   -1.852403 O.3        1 UNL1     -0.3841
     29 O         -0.433006   -1.966853   1.480014 O.3        1 UNL1     -0.3863
     30 O         -0.457202   -3.709025   -1.754852 O.3        1 UNL1     -0.3829
     31 H         1.818061   -0.466695   -1.891448 H        1 UNL1     0.0937
     32 H         0.0   0.0   0.0 H        1 UNL1     0.0671
     33 H         -1.570705   -2.100944   -0.184739 H        1 UNL1     0.0649
     34 H         -0.259941   -4.246528   0.215963 H        1 UNL1     0.0683
     35 H         1.849771   -4.363842   -1.028867 H        1 UNL1     0.1085
     36 H         2.566263   -2.243574   3.270053 H        1 UNL1     0.0691
     37 H         3.48159   -1.960469   -0.938537 H        1 UNL1     0.0691
     38 H         6.977492   1.052297   0.634526 H        1 UNL1     0.0385
     39 H         6.437725   2.729028   0.848457 H        1 UNL1     0.0385
     40 H         5.901235   1.783047   -1.428964 H        1 UNL1     0.0789
     41 H         5.428317   4.213648   -1.300397 H        1 UNL1     0.0623
     42 H         3.65629   5.921743   -1.367555 H        1 UNL1     0.0654
     43 H         0.764873   2.986677   -0.153274 H        1 UNL1     0.0654
     44 H         2.485237   1.27066   -0.113401 H        1 UNL1     0.0623
     45 H         0.491961   5.341708   -0.106035 H        1 UNL1     0.2921
     46 H         4.725199   0.061274   4.191126 H        1 UNL1     0.2922
     47 H         3.232202   -0.007348   -0.462604 H        1 UNL1     0.2126
     48 H         -0.043032   -1.010014   -2.578095 H        1 UNL1     0.2101
     49 H         0.461843   -1.701026   1.745297 H        1 UNL1     0.2100
     50 H         -1.202874   -4.336574   -1.655519 H        1 UNL1     0.2102
@<TRIPOS>BOND
     1     1     2    1
     2     1     6    1
     3     2     3    1
     4     3     4    1
     5     3    29    1
     6     3    33    1
     7     4     5    1
     8     5     6    1
     9     5     7    1
    10     5    35    1
    11     7     8    1
    12     8     9   ar
    13     8    13   ar
    14     9    10   ar
    15     9    36    1
    16    10    11   ar
    17    10    26    1
    18    11    12   ar
    19    11    14    1
    20    12    13   ar
    21    12    17    1
    22    13    37    1
    23    14    15    1
    24    14    25    2
    25    15    16    1
    26    15    38    1
    27    15    39    1
    28    16    17    1
    29    16    18    1
    30    16    40    1
    31    18    19   ar
    32    18    23   ar
    33    19    20   ar
    34    19    41    1
    35    20    21   ar
    36    20    42    1
    37    21    22   ar
    38    21    24    1
    39    22    23   ar
    40    22    43    1
    41    23    44    1
    42    24    45    1
    43    26    46    1
    44    27    47    1
    45    28    48    1
    46    29    49    1
    47    30    50    1
    48     1    31    1
    49     1    27    1
    50     2    32    1
    51     2    28    1
    52     4    34    1
    53     4    30    1
