@<TRIPOS>MOLECULE
*****
 50 53 0 0 0
SMALL
GASTEIGER

@<TRIPOS>ATOM
     1 C         -0.355798   -1.380507   1.654815 C.3        1 UNL1     0.1889
     2 C         -0.496057   -0.96436   0.165826 C.3        1 UNL1     0.1342
     3 C         -1.943452   -0.877223   -0.342033 C.3        1 UNL1     0.1174
     4 C         -2.859003   -1.927651   0.291594 C.3        1 UNL1     0.1456
     5 C         -2.684784   -2.018482   1.818605 C.3        1 UNL1     0.2326
     6 O         -1.323901   -2.300854   2.136616 O.3        1 UNL1     -0.3076
     7 O         -3.205611   -0.877133   2.523859 O.3        1 UNL1     -0.4605
     8 C         -3.714049   -1.124791   3.786271 C.ar        1 UNL1     0.1310
     9 C         -4.563715   -2.183616   4.124291 C.ar        1 UNL1     0.0226
     10 C         -5.012576   -2.360137   5.438546 C.ar        1 UNL1     0.1343
     11 C         -4.603116   -1.495053   6.452357 C.ar        1 UNL1     0.1007
     12 C         -3.787752   -0.410129   6.119331 C.ar        1 UNL1     0.1389
     13 C         -3.338694   -0.231326   4.797284 C.ar        1 UNL1     0.0229
     14 C         -4.979205   -1.683614   7.872623 C.2        1 UNL1     0.1740
     15 C         -4.272451   -0.796216   8.854749 C.3        1 UNL1     0.0520
     16 C         -4.161149   0.597284   8.251652 C.3        1 UNL1     0.1322
     17 O         -3.412936   0.563121   7.016305 O.3        1 UNL1     -0.4828
     18 C         -5.497032   1.339198   8.163877 C.ar        1 UNL1     -0.0067
     19 C         -5.594058   2.499061   7.367939 C.ar        1 UNL1     -0.0516
     20 C         -6.787555   3.227979   7.303099 C.ar        1 UNL1     -0.0198
     21 C         -7.886442   2.812484   8.033604 C.ar        1 UNL1     0.1169
     22 C         -7.831913   1.655685   8.800208 C.ar        1 UNL1     -0.0198
     23 C         -6.644129   0.91631   8.850702 C.ar        1 UNL1     -0.0516
     24 O         -9.020032   3.568778   7.975354 O.3        1 UNL1     -0.5068
     25 O         -5.75463   -2.555203   8.256723 O.2        1 UNL1     -0.2917
     26 O         -5.84054   -3.412124   5.701956 O.3        1 UNL1     -0.5058
     27 O         -0.194371   -0.280722   2.536405 O.3        1 UNL1     -0.3648
     28 O         0.184916   -1.938827   -0.646206 O.3        1 UNL1     -0.3841
     29 O         -2.449375   0.452311   -0.205962 O.3        1 UNL1     -0.3863
     30 O         -2.56921   -3.219107   -0.286203 O.3        1 UNL1     -0.3829
     31 H         0.586431   -1.933142   1.737753 H        1 UNL1     0.0937
     32 H         0.0   0.0   0.0 H        1 UNL1     0.0671
     33 H         -1.932147   -1.075908   -1.422828 H        1 UNL1     0.0649
     34 H         -3.905442   -1.70034   0.059868 H        1 UNL1     0.0683
     35 H         -3.268313   -2.904284   2.09919 H        1 UNL1     0.1085
     36 H         -4.872816   -2.922445   3.393053 H        1 UNL1     0.0691
     37 H         -2.705534   0.621933   4.563725 H        1 UNL1     0.0691
     38 H         -3.282525   -1.227473   9.038029 H        1 UNL1     0.0385
     39 H         -4.825498   -0.795222   9.800221 H        1 UNL1     0.0385
     40 H         -3.540478   1.195862   8.932087 H        1 UNL1     0.0789
     41 H         -4.742948   2.851054   6.792297 H        1 UNL1     0.0623
     42 H         -6.846227   4.127354   6.695074 H        1 UNL1     0.0654
     43 H         -8.691099   1.312955   9.364342 H        1 UNL1     0.0654
     44 H         -6.640347   0.01188   9.451399 H        1 UNL1     0.0623
     45 H         -8.832916   4.433208   8.375936 H        1 UNL1     0.2921
     46 H         -5.460901   -3.95253   6.412764 H        1 UNL1     0.2922
     47 H         0.552055   0.266813   2.255487 H        1 UNL1     0.2126
     48 H         1.141521   -1.796767   -0.510344 H        1 UNL1     0.2101
     49 H         -2.141163   0.999987   -0.945455 H        1 UNL1     0.2100
     50 H         -2.843771   -3.197265   -1.226337 H        1 UNL1     0.2102
@<TRIPOS>BOND
     1     1     2    1
     2     1     6    1
     3     2     3    1
     4     3     4    1
     5     3    29    1
     6     3    33    1
     7     4     5    1
     8     5     6    1
     9     5     7    1
    10     5    35    1
    11     7     8    1
    12     8     9   ar
    13     8    13   ar
    14     9    10   ar
    15     9    36    1
    16    10    11   ar
    17    10    26    1
    18    11    12   ar
    19    11    14    1
    20    12    13   ar
    21    12    17    1
    22    13    37    1
    23    14    15    1
    24    14    25    2
    25    15    16    1
    26    15    38    1
    27    15    39    1
    28    16    17    1
    29    16    18    1
    30    16    40    1
    31    18    19   ar
    32    18    23   ar
    33    19    20   ar
    34    19    41    1
    35    20    21   ar
    36    20    42    1
    37    21    22   ar
    38    21    24    1
    39    22    23   ar
    40    22    43    1
    41    23    44    1
    42    24    45    1
    43    26    46    1
    44    27    47    1
    45    28    48    1
    46    29    49    1
    47    30    50    1
    48     1    31    1
    49     1    27    1
    50     2    32    1
    51     2    28    1
    52     4    34    1
    53     4    30    1
