@<TRIPOS>MOLECULE
*****
 50 53 0 0 0
SMALL
GASTEIGER

@<TRIPOS>ATOM
     1 C         0.60172   -1.58625   1.3757 C.3        1 UNL1     0.1889
     2 C         -0.48017   -0.747851   0.643209 C.3        1 UNL1     0.1342
     3 C         -1.481499   -0.042376   1.57063 C.3        1 UNL1     0.1174
     4 C         -1.805355   -0.858158   2.824717 C.3        1 UNL1     0.1456
     5 C         -0.544378   -1.425915   3.50144 C.3        1 UNL1     0.2326
     6 O         0.186947   -2.224879   2.574245 O.3        1 UNL1     -0.3076
     7 O         0.262907   -0.422177   4.143406 O.3        1 UNL1     -0.4605
     8 C         1.551394   -0.801124   4.474659 C.ar        1 UNL1     0.1310
     9 C         2.166646   -0.585213   5.712459 C.ar        1 UNL1     0.0226
     10 C         3.473688   -1.023005   5.957164 C.ar        1 UNL1     0.1343
     11 C         4.189371   -1.709083   4.976891 C.ar        1 UNL1     0.1007
     12 C         3.600585   -1.894501   3.723203 C.ar        1 UNL1     0.1389
     13 C         2.287318   -1.451877   3.476533 C.ar        1 UNL1     0.0229
     14 C         5.541606   -2.267243   5.209425 C.2        1 UNL1     0.1740
     15 C         6.06899   -3.163347   4.127569 C.3        1 UNL1     0.0520
     16 C         5.688365   -2.566693   2.779576 C.3        1 UNL1     0.1322
     17 O         4.253206   -2.460466   2.652672 O.3        1 UNL1     -0.4828
     18 C         6.45221   -1.285894   2.434876 C.ar        1 UNL1     -0.0067
     19 C         7.270937   -1.255413   1.287283 C.ar        1 UNL1     -0.0516
     20 C         8.019887   -0.116155   0.969277 C.ar        1 UNL1     -0.0198
     21 C         7.964544   0.993935   1.792968 C.ar        1 UNL1     0.1169
     22 C         7.141757   1.006234   2.911766 C.ar        1 UNL1     -0.0198
     23 C         6.378508   -0.126272   3.219885 C.ar        1 UNL1     -0.0516
     24 O         8.736914   2.071349   1.471994 O.3        1 UNL1     -0.5068
     25 O         6.17727   -2.089988   6.245281 O.2        1 UNL1     -0.2917
     26 O         4.016434   -0.78005   7.185164 O.3        1 UNL1     -0.5058
     27 O         1.830321   -0.89783   1.547178 O.3        1 UNL1     -0.3648
     28 O         -1.234496   -1.625195   -0.213509 O.3        1 UNL1     -0.3841
     29 O         -1.045948   1.285083   1.871096 O.3        1 UNL1     -0.3863
     30 O         -2.673027   -1.955246   2.465227 O.3        1 UNL1     -0.3829
     31 H         0.851252   -2.422274   0.713222 H        1 UNL1     0.0937
     32 H         0.0   0.0   0.0 H        1 UNL1     0.0671
     33 H         -2.423551   0.077799   1.017623 H        1 UNL1     0.0649
     34 H         -2.353258   -0.238227   3.54297 H        1 UNL1     0.0683
     35 H         -0.938464   -2.105933   4.267044 H        1 UNL1     0.1085
     36 H         1.643506   -0.107674   6.533679 H        1 UNL1     0.0691
     37 H         1.852058   -1.607461   2.491731 H        1 UNL1     0.0691
     38 H         5.615183   -4.150645   4.264786 H        1 UNL1     0.0385
     39 H         7.153314   -3.2662   4.243514 H        1 UNL1     0.0385
     40 H         5.978932   -3.294409   2.009822 H        1 UNL1     0.0789
     41 H         7.338658   -2.117154   0.629662 H        1 UNL1     0.0623
     42 H         8.656657   -0.10923   0.088092 H        1 UNL1     0.0654
     43 H         7.079346   1.875609   3.555351 H        1 UNL1     0.0654
     44 H         5.738581   -0.077941   4.095672 H        1 UNL1     0.0623
     45 H         9.65819   1.775387   1.39216 H        1 UNL1     0.2921
     46 H         4.667201   -0.063788   7.115283 H        1 UNL1     0.2922
     47 H         2.105993   -0.930648   2.473886 H        1 UNL1     0.2126
     48 H         -1.700869   -2.253639   0.370689 H        1 UNL1     0.2101
     49 H         -0.077292   1.330971   1.833767 H        1 UNL1     0.2100
     50 H         -3.592126   -1.697391   2.685414 H        1 UNL1     0.2102
@<TRIPOS>BOND
     1     1     2    1
     2     1     6    1
     3     2     3    1
     4     3     4    1
     5     3    29    1
     6     3    33    1
     7     4     5    1
     8     5     6    1
     9     5     7    1
    10     5    35    1
    11     7     8    1
    12     8     9   ar
    13     8    13   ar
    14     9    10   ar
    15     9    36    1
    16    10    11   ar
    17    10    26    1
    18    11    12   ar
    19    11    14    1
    20    12    13   ar
    21    12    17    1
    22    13    37    1
    23    14    15    1
    24    14    25    2
    25    15    16    1
    26    15    38    1
    27    15    39    1
    28    16    17    1
    29    16    18    1
    30    16    40    1
    31    18    19   ar
    32    18    23   ar
    33    19    20   ar
    34    19    41    1
    35    20    21   ar
    36    20    42    1
    37    21    22   ar
    38    21    24    1
    39    22    23   ar
    40    22    43    1
    41    23    44    1
    42    24    45    1
    43    26    46    1
    44    27    47    1
    45    28    48    1
    46    29    49    1
    47    30    50    1
    48     1    31    1
    49     1    27    1
    50     2    32    1
    51     2    28    1
    52     4    34    1
    53     4    30    1
