@<TRIPOS>MOLECULE
*****
 50 53 0 0 0
SMALL
GASTEIGER

@<TRIPOS>ATOM
     1 C         1.680145   -0.952201   -1.020407 C.3        1 UNL1     0.1889
     2 C         0.763844   -0.756862   0.217404 C.3        1 UNL1     0.1342
     3 C         1.50255   -0.367265   1.506974 C.3        1 UNL1     0.1174
     4 C         2.883049   -1.018832   1.620115 C.3        1 UNL1     0.1456
     5 C         3.696496   -0.908115   0.317652 C.3        1 UNL1     0.2326
     6 O         2.968398   -1.490323   -0.761132 O.3        1 UNL1     -0.3076
     7 O         4.15093   0.42842   0.037501 O.3        1 UNL1     -0.4605
     8 C         3.162744   1.380131   -0.139314 C.ar        1 UNL1     0.1310
     9 C         2.200458   1.370129   -1.154796 C.ar        1 UNL1     0.0226
     10 C         1.227477   2.373121   -1.23976 C.ar        1 UNL1     0.1343
     11 C         1.178527   3.398491   -0.29633 C.ar        1 UNL1     0.1007
     12 C         2.159157   3.441824   0.69829 C.ar        1 UNL1     0.1389
     13 C         3.138983   2.434662   0.781946 C.ar        1 UNL1     0.0229
     14 C         0.121929   4.436618   -0.289354 C.2        1 UNL1     0.1740
     15 C         0.092118   5.324579   0.919854 C.3        1 UNL1     0.0520
     16 C         1.525812   5.662664   1.30479 C.3        1 UNL1     0.1322
     17 O         2.27048   4.463575   1.612565 O.3        1 UNL1     -0.4828
     18 C         2.221643   6.606603   0.321162 C.ar        1 UNL1     -0.0067
     19 C         3.10152   6.075166   -0.644035 C.ar        1 UNL1     -0.0516
     20 C         3.790362   6.914612   -1.527658 C.ar        1 UNL1     -0.0198
     21 C         3.613959   8.284619   -1.451559 C.ar        1 UNL1     0.1169
     22 C         2.728865   8.835545   -0.533994 C.ar        1 UNL1     -0.0198
     23 C         2.025903   7.99506   0.337491 C.ar        1 UNL1     -0.0516
     24 O         4.330404   9.07301   -2.303349 O.3        1 UNL1     -0.5068
     25 O         -0.73545   4.534575   -1.163305 O.2        1 UNL1     -0.2917
     26 O         0.318283   2.305973   -2.254867 O.3        1 UNL1     -0.5058
     27 O         1.748783   0.190164   -1.858905 O.3        1 UNL1     -0.3648
     28 O         0.075572   -1.994795   0.475297 O.3        1 UNL1     -0.3841
     29 O         1.547086   1.053235   1.656401 O.3        1 UNL1     -0.3863
     30 O         2.722037   -2.415736   1.949395 O.3        1 UNL1     -0.3829
     31 H         1.204226   -1.71652   -1.644422 H        1 UNL1     0.0937
     32 H         0.0   0.0   0.0 H        1 UNL1     0.0671
     33 H         0.908578   -0.731558   2.356802 H        1 UNL1     0.0649
     34 H         3.447433   -0.559429   2.439151 H        1 UNL1     0.0683
     35 H         4.56941   -1.548583   0.495703 H        1 UNL1     0.1085
     36 H         2.150741   0.570204   -1.885391 H        1 UNL1     0.0691
     37 H         3.891976   2.491896   1.565029 H        1 UNL1     0.0691
     38 H         -0.413069   4.775466   1.721595 H        1 UNL1     0.0385
     39 H         -0.497839   6.219325   0.693672 H        1 UNL1     0.0385
     40 H         1.484876   6.211943   2.255125 H        1 UNL1     0.0789
     41 H         3.264173   5.003848   -0.718016 H        1 UNL1     0.0623
     42 H         4.475148   6.493535   -2.259624 H        1 UNL1     0.0654
     43 H         2.571805   9.905996   -0.475868 H        1 UNL1     0.0654
     44 H         1.334619   8.458895   1.034504 H        1 UNL1     0.0623
     45 H         4.987837   9.565468   -1.785678 H        1 UNL1     0.2921
     46 H         0.634017   1.686394   -2.93151 H        1 UNL1     0.2922
     47 H         2.6615   0.504419   -1.922553 H        1 UNL1     0.2126
     48 H         -0.725407   -1.991129   -0.083408 H        1 UNL1     0.2101
     49 H         1.428265   1.290766   2.589812 H        1 UNL1     0.2100
     50 H         2.020832   -2.486221   2.629877 H        1 UNL1     0.2102
@<TRIPOS>BOND
     1     1     2    1
     2     1     6    1
     3     2     3    1
     4     3     4    1
     5     3    29    1
     6     3    33    1
     7     4     5    1
     8     5     6    1
     9     5     7    1
    10     5    35    1
    11     7     8    1
    12     8     9   ar
    13     8    13   ar
    14     9    10   ar
    15     9    36    1
    16    10    11   ar
    17    10    26    1
    18    11    12   ar
    19    11    14    1
    20    12    13   ar
    21    12    17    1
    22    13    37    1
    23    14    15    1
    24    14    25    2
    25    15    16    1
    26    15    38    1
    27    15    39    1
    28    16    17    1
    29    16    18    1
    30    16    40    1
    31    18    19   ar
    32    18    23   ar
    33    19    20   ar
    34    19    41    1
    35    20    21   ar
    36    20    42    1
    37    21    22   ar
    38    21    24    1
    39    22    23   ar
    40    22    43    1
    41    23    44    1
    42    24    45    1
    43    26    46    1
    44    27    47    1
    45    28    48    1
    46    29    49    1
    47    30    50    1
    48     1    31    1
    49     1    27    1
    50     2    32    1
    51     2    28    1
    52     4    34    1
    53     4    30    1
