@<TRIPOS>MOLECULE
*****
 50 53 0 0 0
SMALL
GASTEIGER

@<TRIPOS>ATOM
     1 C         -2.081156   -0.537489   -0.388203 C.3        1 UNL1     0.1889
     2 C         -0.861284   0.4103   -0.541669 C.3        1 UNL1     0.1342
     3 C         -1.107023   1.852741   -0.073225 C.3        1 UNL1     0.1174
     4 C         -2.536938   2.328498   -0.341771 C.3        1 UNL1     0.1456
     5 C         -3.593363   1.292446   0.083585 C.3        1 UNL1     0.2326
     6 O         -3.356776   0.054907   -0.583792 O.3        1 UNL1     -0.3076
     7 O         -3.715843   1.151397   1.510618 O.3        1 UNL1     -0.4605
     8 C         -3.853767   2.327069   2.226369 C.ar        1 UNL1     0.1310
     9 C         -3.784434   3.616471   1.687912 C.ar        1 UNL1     0.0226
     10 C         -3.954559   4.747829   2.49475 C.ar        1 UNL1     0.1343
     11 C         -4.222083   4.616558   3.856749 C.ar        1 UNL1     0.1007
     12 C         -4.252919   3.335218   4.413526 C.ar        1 UNL1     0.1389
     13 C         -4.079202   2.197882   3.602527 C.ar        1 UNL1     0.0229
     14 C         -4.493197   5.774763   4.739478 C.2        1 UNL1     0.1740
     15 C         -4.980181   5.439956   6.118717 C.3        1 UNL1     0.0520
     16 C         -4.201282   4.233781   6.625091 C.3        1 UNL1     0.1322
     17 O         -4.400937   3.09431   5.759751 O.3        1 UNL1     -0.4828
     18 C         -2.735893   4.537232   6.946459 C.ar        1 UNL1     -0.0067
     19 C         -1.767554   3.525055   6.785115 C.ar        1 UNL1     -0.0516
     20 C         -0.426507   3.754777   7.114939 C.ar        1 UNL1     -0.0198
     21 C         -0.043273   4.987268   7.612859 C.ar        1 UNL1     0.1169
     22 C         -0.967674   6.014462   7.751407 C.ar        1 UNL1     -0.0198
     23 C         -2.305408   5.790823   7.404266 C.ar        1 UNL1     -0.0516
     24 O         1.264459   5.162104   7.958794 O.3        1 UNL1     -0.5068
     25 O         -4.410768   6.942343   4.367395 O.2        1 UNL1     -0.2917
     26 O         -3.874017   5.976993   1.908019 O.3        1 UNL1     -0.5058
     27 O         -2.043214   -1.320893   0.794009 O.3        1 UNL1     -0.3648
     28 O         -0.500647   0.467721   -1.934274 O.3        1 UNL1     -0.3841
     29 O         -0.716566   2.016062   1.291693 O.3        1 UNL1     -0.3863
     30 O         -2.69032   2.595239   -1.752803 O.3        1 UNL1     -0.3829
     31 H         -2.012004   -1.270253   -1.199593 H        1 UNL1     0.0937
     32 H         0.0   0.0   0.0 H        1 UNL1     0.0671
     33 H         -0.44007   2.510264   -0.648166 H        1 UNL1     0.0649
     34 H         -2.722485   3.271265   0.184693 H        1 UNL1     0.0683
     35 H         -4.533504   1.694689   -0.314177 H        1 UNL1     0.1085
     36 H         -3.634937   3.78406   0.626929 H        1 UNL1     0.0691
     37 H         -4.106597   1.211485   4.060526 H        1 UNL1     0.0691
     38 H         -6.050193   5.217496   6.047215 H        1 UNL1     0.0385
     39 H         -4.855216   6.314908   6.765727 H        1 UNL1     0.0385
     40 H         -4.652562   3.93505   7.580929 H        1 UNL1     0.0789
     41 H         -2.044637   2.546171   6.404772 H        1 UNL1     0.0623
     42 H         0.308623   2.962472   6.997257 H        1 UNL1     0.0654
     43 H         -0.67556   6.988172   8.1262 H        1 UNL1     0.0654
     44 H         -2.998613   6.619057   7.515352 H        1 UNL1     0.0623
     45 H         1.820175   4.778176   7.261301 H        1 UNL1     0.2921
     46 H         -3.919988   6.664966   2.590655 H        1 UNL1     0.2922
     47 H         -2.927206   -1.384977   1.18171 H        1 UNL1     0.2126
     48 H         -1.26161   0.8598   -2.404317 H        1 UNL1     0.2101
     49 H         -1.426807   2.453023   1.788098 H        1 UNL1     0.2100
     50 H         -2.134325   3.370539   -1.97527 H        1 UNL1     0.2102
@<TRIPOS>BOND
     1     1     2    1
     2     1     6    1
     3     2     3    1
     4     3     4    1
     5     3    29    1
     6     3    33    1
     7     4     5    1
     8     5     6    1
     9     5     7    1
    10     5    35    1
    11     7     8    1
    12     8     9   ar
    13     8    13   ar
    14     9    10   ar
    15     9    36    1
    16    10    11   ar
    17    10    26    1
    18    11    12   ar
    19    11    14    1
    20    12    13   ar
    21    12    17    1
    22    13    37    1
    23    14    15    1
    24    14    25    2
    25    15    16    1
    26    15    38    1
    27    15    39    1
    28    16    17    1
    29    16    18    1
    30    16    40    1
    31    18    19   ar
    32    18    23   ar
    33    19    20   ar
    34    19    41    1
    35    20    21   ar
    36    20    42    1
    37    21    22   ar
    38    21    24    1
    39    22    23   ar
    40    22    43    1
    41    23    44    1
    42    24    45    1
    43    26    46    1
    44    27    47    1
    45    28    48    1
    46    29    49    1
    47    30    50    1
    48     1    31    1
    49     1    27    1
    50     2    32    1
    51     2    28    1
    52     4    34    1
    53     4    30    1
