@<TRIPOS>MOLECULE
*****
 50 53 0 0 0
SMALL
GASTEIGER

@<TRIPOS>ATOM
     1 C         -0.700062   -1.821253   0.98171 C.3        1 UNL1     0.1889
     2 C         -0.004219   -1.080205   -0.191573 C.3        1 UNL1     0.1342
     3 C         -0.624064   -1.341746   -1.572824 C.3        1 UNL1     0.1174
     4 C         -1.157865   -2.768468   -1.723281 C.3        1 UNL1     0.1456
     5 C         -1.997011   -3.215451   -0.512329 C.3        1 UNL1     0.2326
     6 O         -1.224724   -3.106092   0.681187 O.3        1 UNL1     -0.3076
     7 O         -3.272496   -2.554714   -0.423522 O.3        1 UNL1     -0.4605
     8 C         -4.299782   -3.292622   0.136572 C.ar        1 UNL1     0.1310
     9 C         -4.604268   -4.622621   -0.172769 C.ar        1 UNL1     0.0226
     10 C         -5.657319   -5.290777   0.463276 C.ar        1 UNL1     0.1343
     11 C         -6.417097   -4.651915   1.442272 C.ar        1 UNL1     0.1007
     12 C         -6.148829   -3.311077   1.730319 C.ar        1 UNL1     0.1389
     13 C         -5.091632   -2.63866   1.088741 C.ar        1 UNL1     0.0229
     14 C         -7.486637   -5.335898   2.205425 C.2        1 UNL1     0.1740
     15 C         -8.046344   -4.569769   3.36789 C.3        1 UNL1     0.0520
     16 C         -8.185313   -3.109421   2.960426 C.3        1 UNL1     0.1322
     17 O         -6.90205   -2.554003   2.597361 O.3        1 UNL1     -0.4828
     18 C         -9.297297   -2.857794   1.939202 C.ar        1 UNL1     -0.0067
     19 C         -9.023   -2.083037   0.793459 C.ar        1 UNL1     -0.0516
     20 C         -10.029167   -1.794258   -0.136164 C.ar        1 UNL1     -0.0198
     21 C         -11.312491   -2.267155   0.071861 C.ar        1 UNL1     0.1169
     22 C         -11.605752   -3.060685   1.17329 C.ar        1 UNL1     -0.0198
     23 C         -10.595486   -3.365034   2.093502 C.ar        1 UNL1     -0.0516
     24 O         -12.274973   -1.93398   -0.835345 O.3        1 UNL1     -0.5068
     25 O         -7.853561   -6.484883   1.973723 O.2        1 UNL1     -0.2917
     26 O         -5.903067   -6.58697   0.115314 O.3        1 UNL1     -0.5058
     27 O         -1.64237   -1.020213   1.676818 O.3        1 UNL1     -0.3648
     28 O         1.369272   -1.507704   -0.250498 O.3        1 UNL1     -0.3841
     29 O         -1.602968   -0.348731   -1.885557 O.3        1 UNL1     -0.3863
     30 O         -0.045599   -3.676591   -1.877766 O.3        1 UNL1     -0.3829
     31 H         0.077208   -2.029525   1.725049 H        1 UNL1     0.0937
     32 H         0.0   0.0   0.0 H        1 UNL1     0.0671
     33 H         0.167821   -1.21777   -2.324667 H        1 UNL1     0.0649
     34 H         -1.764379   -2.846923   -2.63234 H        1 UNL1     0.0683
     35 H         -2.164349   -4.285667   -0.687014 H        1 UNL1     0.1085
     36 H         -4.015848   -5.191688   -0.884137 H        1 UNL1     0.0691
     37 H         -4.903989   -1.594584   1.329964 H        1 UNL1     0.0691
     38 H         -7.348899   -4.681617   4.204901 H        1 UNL1     0.0385
     39 H         -9.005241   -5.011081   3.66036 H        1 UNL1     0.0385
     40 H         -8.482714   -2.549905   3.857652 H        1 UNL1     0.0789
     41 H         -8.02588   -1.692511   0.612102 H        1 UNL1     0.0623
     42 H         -9.807903   -1.185806   -1.009571 H        1 UNL1     0.0654
     43 H         -12.603837   -3.448761   1.338018 H        1 UNL1     0.0654
     44 H         -10.857607   -3.996445   2.936981 H        1 UNL1     0.0623
     45 H         -12.361656   -0.967022   -0.849365 H        1 UNL1     0.2921
     46 H         -5.862441   -7.147531   0.90622 H        1 UNL1     0.2922
     47 H         -1.222177   -0.208985   1.994947 H        1 UNL1     0.2126
     48 H         1.779939   -1.246923   0.596307 H        1 UNL1     0.2101
     49 H         -1.169216   0.506104   -2.036918 H        1 UNL1     0.2100
     50 H         0.397575   -3.468916   -2.7264 H        1 UNL1     0.2102
@<TRIPOS>BOND
     1     1     2    1
     2     1     6    1
     3     2     3    1
     4     3     4    1
     5     3    29    1
     6     3    33    1
     7     4     5    1
     8     5     6    1
     9     5     7    1
    10     5    35    1
    11     7     8    1
    12     8     9   ar
    13     8    13   ar
    14     9    10   ar
    15     9    36    1
    16    10    11   ar
    17    10    26    1
    18    11    12   ar
    19    11    14    1
    20    12    13   ar
    21    12    17    1
    22    13    37    1
    23    14    15    1
    24    14    25    2
    25    15    16    1
    26    15    38    1
    27    15    39    1
    28    16    17    1
    29    16    18    1
    30    16    40    1
    31    18    19   ar
    32    18    23   ar
    33    19    20   ar
    34    19    41    1
    35    20    21   ar
    36    20    42    1
    37    21    22   ar
    38    21    24    1
    39    22    23   ar
    40    22    43    1
    41    23    44    1
    42    24    45    1
    43    26    46    1
    44    27    47    1
    45    28    48    1
    46    29    49    1
    47    30    50    1
    48     1    31    1
    49     1    27    1
    50     2    32    1
    51     2    28    1
    52     4    34    1
    53     4    30    1
