@<TRIPOS>MOLECULE
*****
 50 53 0 0 0
SMALL
GASTEIGER

@<TRIPOS>ATOM
     1 C         0.1892   -1.749986   1.293274 C.3        1 UNL1     0.1889
     2 C         -0.345887   -1.040922   0.020148 C.3        1 UNL1     0.1342
     3 C         -1.874524   -1.064051   -0.132167 C.3        1 UNL1     0.1174
     4 C         -2.504229   -2.354983   0.397063 C.3        1 UNL1     0.1456
     5 C         -1.958568   -2.753914   1.780346 C.3        1 UNL1     0.2326
     6 O         -0.54046   -2.889979   1.7227 O.3        1 UNL1     -0.3076
     7 O         -2.401368   -1.889374   2.842335 O.3        1 UNL1     -0.4605
     8 C         -2.563632   -2.48434   4.080565 C.ar        1 UNL1     0.1310
     9 C         -3.205322   -3.705205   4.315137 C.ar        1 UNL1     0.0226
     10 C         -3.303989   -4.234399   5.607468 C.ar        1 UNL1     0.1343
     11 C         -2.741917   -3.566423   6.694539 C.ar        1 UNL1     0.1007
     12 C         -2.134535   -2.326576   6.478549 C.ar        1 UNL1     0.1389
     13 C         -2.037776   -1.793418   5.179392 C.ar        1 UNL1     0.0229
     14 C         -2.743491   -4.120127   8.068425 C.2        1 UNL1     0.1740
     15 C         -1.904011   -3.379783   9.067782 C.3        1 UNL1     0.0520
     16 C         -2.070377   -1.886116   8.824392 C.3        1 UNL1     0.1322
     17 O         -1.64416   -1.533428   7.489843 O.3        1 UNL1     -0.4828
     18 C         -3.449834   -1.348441   9.21263 C.ar        1 UNL1     -0.0067
     19 C         -3.676909   0.043189   9.208796 C.ar        1 UNL1     -0.0516
     20 C         -4.912097   0.570548   9.603977 C.ar        1 UNL1     -0.0198
     21 C         -5.923556   -0.280865   10.011254 C.ar        1 UNL1     0.1169
     22 C         -5.741277   -1.657569   9.993962 C.ar        1 UNL1     -0.0198
     23 C         -4.512307   -2.186101   9.581237 C.ar        1 UNL1     -0.0516
     24 O         -7.100192   0.27097   10.425266 O.3        1 UNL1     -0.5068
     25 O         -3.319452   -5.159896   8.377672 O.2        1 UNL1     -0.2917
     26 O         -3.943438   -5.428844   5.768681 O.3        1 UNL1     -0.5058
     27 O         0.451773   -0.861066   2.367361 O.3        1 UNL1     -0.3648
     28 O         0.209665   -1.69679   -1.1348 O.3        1 UNL1     -0.3841
     29 O         -2.458513   0.109966   0.435966 O.3        1 UNL1     -0.3863
     30 O         -2.239258   -3.427355   -0.533259 O.3        1 UNL1     -0.3829
     31 H         1.172383   -2.157875   1.034321 H        1 UNL1     0.0937
     32 H         0.0   0.0   0.0 H        1 UNL1     0.0671
     33 H         -2.105369   -1.014625   -1.205474 H        1 UNL1     0.0649
     34 H         -3.592561   -2.243379   0.456037 H        1 UNL1     0.0683
     35 H         -2.368793   -3.757806   1.947061 H        1 UNL1     0.1085
     36 H         -3.613509   -4.299715   3.50516 H        1 UNL1     0.0691
     37 H         -1.561035   -0.82583   5.038023 H        1 UNL1     0.0691
     38 H         -0.86398   -3.690357   8.921477 H        1 UNL1     0.0385
     39 H         -2.208985   -3.671063   10.078685 H        1 UNL1     0.0385
     40 H         -1.360743   -1.369525   9.484751 H        1 UNL1     0.0789
     41 H         -2.896049   0.733026   8.902149 H        1 UNL1     0.0623
     42 H         -5.070965   1.646074   9.608027 H        1 UNL1     0.0654
     43 H         -6.531625   -2.334099   10.29656 H        1 UNL1     0.0654
     44 H         -4.408351   -3.266802   9.570112 H        1 UNL1     0.0623
     45 H         -6.936227   1.196746   10.667696 H        1 UNL1     0.2921
     46 H         -3.480916   -5.955448   6.439631 H        1 UNL1     0.2922
     47 H         0.641463   -1.358628   3.175018 H        1 UNL1     0.2126
     48 H         -0.369547   -2.458604   -1.32944 H        1 UNL1     0.2101
     49 H         -2.784404   -0.082849   1.329505 H        1 UNL1     0.2100
     50 H         -2.749977   -3.250718   -1.350374 H        1 UNL1     0.2102
@<TRIPOS>BOND
     1     1     2    1
     2     1     6    1
     3     2     3    1
     4     3     4    1
     5     3    29    1
     6     3    33    1
     7     4     5    1
     8     5     6    1
     9     5     7    1
    10     5    35    1
    11     7     8    1
    12     8     9   ar
    13     8    13   ar
    14     9    10   ar
    15     9    36    1
    16    10    11   ar
    17    10    26    1
    18    11    12   ar
    19    11    14    1
    20    12    13   ar
    21    12    17    1
    22    13    37    1
    23    14    15    1
    24    14    25    2
    25    15    16    1
    26    15    38    1
    27    15    39    1
    28    16    17    1
    29    16    18    1
    30    16    40    1
    31    18    19   ar
    32    18    23   ar
    33    19    20   ar
    34    19    41    1
    35    20    21   ar
    36    20    42    1
    37    21    22   ar
    38    21    24    1
    39    22    23   ar
    40    22    43    1
    41    23    44    1
    42    24    45    1
    43    26    46    1
    44    27    47    1
    45    28    48    1
    46    29    49    1
    47    30    50    1
    48     1    31    1
    49     1    27    1
    50     2    32    1
    51     2    28    1
    52     4    34    1
    53     4    30    1
