@<TRIPOS>MOLECULE
*****
 50 53 0 0 0
SMALL
GASTEIGER

@<TRIPOS>ATOM
     1 C         -0.339085   -1.333356   1.696463 C.3        1 UNL1     0.1889
     2 C         -0.465667   -0.974727   0.191371 C.3        1 UNL1     0.1342
     3 C         -1.905445   -0.956092   -0.3445 C.3        1 UNL1     0.1174
     4 C         -2.796083   -2.015084   0.310035 C.3        1 UNL1     0.1456
     5 C         -2.647448   -2.046278   1.842125 C.3        1 UNL1     0.2326
     6 O         -1.28386   -2.269577   2.19374 O.3        1 UNL1     -0.3076
     7 O         -3.220263   -0.899865   2.497062 O.3        1 UNL1     -0.4605
     8 C         -3.733244   -1.118369   3.763014 C.ar        1 UNL1     0.1310
     9 C         -4.553553   -2.190251   4.131066 C.ar        1 UNL1     0.0226
     10 C         -5.00966   -2.334036   5.446815 C.ar        1 UNL1     0.1343
     11 C         -4.636649   -1.421548   6.432751 C.ar        1 UNL1     0.1007
     12 C         -3.851466   -0.324476   6.068464 C.ar        1 UNL1     0.1389
     13 C         -3.395156   -0.17868   4.744849 C.ar        1 UNL1     0.0229
     14 C         -5.02069   -1.571382   7.8555 C.2        1 UNL1     0.1740
     15 C         -4.350905   -0.628577   8.811563 C.3        1 UNL1     0.0520
     16 C         -4.276176   0.74555   8.160297 C.3        1 UNL1     0.1322
     17 O         -3.515231   0.690873   6.933495 O.3        1 UNL1     -0.4828
     18 C         -5.633099   1.442461   8.034596 C.ar        1 UNL1     -0.0067
     19 C         -6.006778   2.01331   6.800615 C.ar        1 UNL1     -0.0516
     20 C         -7.219721   2.698989   6.664321 C.ar        1 UNL1     -0.0198
     21 C         -8.062444   2.826784   7.753961 C.ar        1 UNL1     0.1169
     22 C         -7.737531   2.246766   8.973325 C.ar        1 UNL1     -0.0198
     23 C         -6.53316   1.545186   9.104984 C.ar        1 UNL1     -0.0516
     24 O         -9.217679   3.533915   7.593345 O.3        1 UNL1     -0.5068
     25 O         -5.772946   -2.452324   8.263589 O.2        1 UNL1     -0.2917
     26 O         -5.807758   -3.40105   5.740251 O.3        1 UNL1     -0.5058
     27 O         -0.23204   -0.198423   2.541007 O.3        1 UNL1     -0.3648
     28 O         0.263439   -1.952597   -0.573404 O.3        1 UNL1     -0.3841
     29 O         -2.459179   0.35888   -0.26474 O.3        1 UNL1     -0.3863
     30 O         -2.451356   -3.315042   -0.216239 O.3        1 UNL1     -0.3829
     31 H         0.619847   -1.849456   1.815497 H        1 UNL1     0.0937
     32 H         0.0   0.0   0.0 H        1 UNL1     0.0671
     33 H         -1.867104   -1.191957   -1.417168 H        1 UNL1     0.0649
     34 H         -3.84519   -1.83276   0.052097 H        1 UNL1     0.0683
     35 H         -3.205365   -2.941586   2.143838 H        1 UNL1     0.1085
     36 H         -4.832862   -2.963568   3.423897 H        1 UNL1     0.0691
     37 H         -2.786006   0.684885   4.486615 H        1 UNL1     0.0691
     38 H         -3.350151   -1.022445   9.018655 H        1 UNL1     0.0385
     39 H         -4.912942   -0.611252   9.751559 H        1 UNL1     0.0385
     40 H         -3.680692   1.386563   8.824391 H        1 UNL1     0.0789
     41 H         -5.358541   1.934681   5.932711 H        1 UNL1     0.0623
     42 H         -7.491137   3.145021   5.710696 H        1 UNL1     0.0654
     43 H         -8.397126   2.327873   9.82905 H        1 UNL1     0.0654
     44 H         -6.31622   1.095765   10.069247 H        1 UNL1     0.0623
     45 H         -8.988112   4.444488   7.346623 H        1 UNL1     0.2921
     46 H         -5.407578   -3.916613   6.458208 H        1 UNL1     0.2922
     47 H         0.511395   0.355536   2.26479 H        1 UNL1     0.2126
     48 H         1.198812   -1.878785   -0.302551 H        1 UNL1     0.2101
     49 H         -2.019422   0.941489   -0.90425 H        1 UNL1     0.2100
     50 H         -2.688079   -3.327964   -1.166769 H        1 UNL1     0.2102
@<TRIPOS>BOND
     1     1     2    1
     2     1     6    1
     3     2     3    1
     4     3     4    1
     5     3    29    1
     6     3    33    1
     7     4     5    1
     8     5     6    1
     9     5     7    1
    10     5    35    1
    11     7     8    1
    12     8     9   ar
    13     8    13   ar
    14     9    10   ar
    15     9    36    1
    16    10    11   ar
    17    10    26    1
    18    11    12   ar
    19    11    14    1
    20    12    13   ar
    21    12    17    1
    22    13    37    1
    23    14    15    1
    24    14    25    2
    25    15    16    1
    26    15    38    1
    27    15    39    1
    28    16    17    1
    29    16    18    1
    30    16    40    1
    31    18    19   ar
    32    18    23   ar
    33    19    20   ar
    34    19    41    1
    35    20    21   ar
    36    20    42    1
    37    21    22   ar
    38    21    24    1
    39    22    23   ar
    40    22    43    1
    41    23    44    1
    42    24    45    1
    43    26    46    1
    44    27    47    1
    45    28    48    1
    46    29    49    1
    47    30    50    1
    48     1    31    1
    49     1    27    1
    50     2    32    1
    51     2    28    1
    52     4    34    1
    53     4    30    1
