@<TRIPOS>MOLECULE
*****
 50 53 0 0 0
SMALL
GASTEIGER

@<TRIPOS>ATOM
     1 C         -0.015682   -1.120179   1.875035 C.3        1 UNL1     0.1889
     2 C         -0.273282   -1.003672   0.348599 C.3        1 UNL1     0.1342
     3 C         -1.715785   -1.308679   -0.083398 C.3        1 UNL1     0.1174
     4 C         -2.370342   -2.402646   0.763896 C.3        1 UNL1     0.1456
     5 C         -2.148815   -2.192314   2.272886 C.3        1 UNL1     0.2326
     6 O         -0.752716   -2.125851   2.554594 O.3        1 UNL1     -0.3076
     7 O         -2.888266   -1.081224   2.811413 O.3        1 UNL1     -0.4605
     8 C         -3.301753   -1.208026   4.125368 C.ar        1 UNL1     0.1310
     9 C         -3.903195   -2.343063   4.679677 C.ar        1 UNL1     0.0226
     10 C         -4.271948   -2.380442   6.029686 C.ar        1 UNL1     0.1343
     11 C         -4.026256   -1.29127   6.86466 C.ar        1 UNL1     0.1007
     12 C         -3.463664   -0.137112   6.313123 C.ar        1 UNL1     0.1389
     13 C         -3.095391   -0.098815   4.955059 C.ar        1 UNL1     0.0229
     14 C         -4.318663   -1.307609   8.316687 C.2        1 UNL1     0.1740
     15 C         -3.787758   -0.142455   9.09906 C.3        1 UNL1     0.0520
     16 C         -3.984699   1.121797   8.273932 C.3        1 UNL1     0.1322
     17 O         -3.277351   1.029587   7.017657 O.3        1 UNL1     -0.4828
     18 C         -5.447675   1.553727   8.147986 C.ar        1 UNL1     -0.0067
     19 C         -5.963117   1.892237   6.879939 C.ar        1 UNL1     -0.0516
     20 C         -7.282914   2.336607   6.736292 C.ar        1 UNL1     -0.0198
     21 C         -8.093278   2.453529   7.8514 C.ar        1 UNL1     0.1169
     22 C         -7.624709   2.095842   9.108914 C.ar        1 UNL1     -0.0198
     23 C         -6.31069   1.63388   9.250336 C.ar        1 UNL1     -0.0516
     24 O         -9.361059   2.925721   7.677716 O.3        1 UNL1     -0.5068
     25 O         -4.885381   -2.239251   8.881805 O.2        1 UNL1     -0.2917
     26 O         -4.855488   -3.517189   6.508093 O.3        1 UNL1     -0.5058
     27 O         -0.076395   0.123414   2.555164 O.3        1 UNL1     -0.3648
     28 O         0.584376   -1.938945   -0.331397 O.3        1 UNL1     -0.3841
     29 O         -2.493073   -0.11073   -0.13701 O.3        1 UNL1     -0.3863
     30 O         -1.821487   -3.684651   0.388512 O.3        1 UNL1     -0.3829
     31 H         1.024935   -1.441538   1.993039 H        1 UNL1     0.0937
     32 H         0.0   0.0   0.0 H        1 UNL1     0.0671
     33 H         -1.684544   -1.68268   -1.116291 H        1 UNL1     0.0649
     34 H         -3.445783   -2.441754   0.558235 H        1 UNL1     0.0683
     35 H         -2.522012   -3.118943   2.726717 H        1 UNL1     0.1085
     36 H         -4.069924   -3.242237   4.096745 H        1 UNL1     0.0691
     37 H         -2.66013   0.812082   4.549711 H        1 UNL1     0.0691
     38 H         -2.725363   -0.328105   9.289788 H        1 UNL1     0.0385
     39 H         -4.304723   -0.092203   10.063425 H        1 UNL1     0.0385
     40 H         -3.485398   1.939753   8.810744 H        1 UNL1     0.0789
     41 H         -5.344389   1.817785   5.990398 H        1 UNL1     0.0623
     42 H         -7.665042   2.605959   5.754742 H        1 UNL1     0.0654
     43 H         -8.255506   2.169233   9.986764 H        1 UNL1     0.0654
     44 H         -5.981127   1.35319   10.24605 H        1 UNL1     0.0623
     45 H         -9.306522   3.82388   7.312951 H        1 UNL1     0.2921
     46 H         -4.341004   -3.853682   7.258752 H        1 UNL1     0.2922
     47 H         0.536728   0.754884   2.153685 H        1 UNL1     0.2126
     48 H         1.502509   -1.666194   -0.140688 H        1 UNL1     0.2101
     49 H         -2.198745   0.440693   -0.879369 H        1 UNL1     0.2100
     50 H         -2.095105   -3.871495   -0.533407 H        1 UNL1     0.2102
@<TRIPOS>BOND
     1     1     2    1
     2     1     6    1
     3     2     3    1
     4     3     4    1
     5     3    29    1
     6     3    33    1
     7     4     5    1
     8     5     6    1
     9     5     7    1
    10     5    35    1
    11     7     8    1
    12     8     9   ar
    13     8    13   ar
    14     9    10   ar
    15     9    36    1
    16    10    11   ar
    17    10    26    1
    18    11    12   ar
    19    11    14    1
    20    12    13   ar
    21    12    17    1
    22    13    37    1
    23    14    15    1
    24    14    25    2
    25    15    16    1
    26    15    38    1
    27    15    39    1
    28    16    17    1
    29    16    18    1
    30    16    40    1
    31    18    19   ar
    32    18    23   ar
    33    19    20   ar
    34    19    41    1
    35    20    21   ar
    36    20    42    1
    37    21    22   ar
    38    21    24    1
    39    22    23   ar
    40    22    43    1
    41    23    44    1
    42    24    45    1
    43    26    46    1
    44    27    47    1
    45    28    48    1
    46    29    49    1
    47    30    50    1
    48     1    31    1
    49     1    27    1
    50     2    32    1
    51     2    28    1
    52     4    34    1
    53     4    30    1
