@<TRIPOS>MOLECULE
*****
 50 53 0 0 0
SMALL
GASTEIGER

@<TRIPOS>ATOM
     1 C         -0.293943   -0.102445   2.161922 C.3        1 UNL1     0.1889
     2 C         -0.799404   0.197142   0.725017 C.3        1 UNL1     0.1342
     3 C         -1.325349   1.625339   0.515013 C.3        1 UNL1     0.1174
     4 C         -2.032226   2.18535   1.751875 C.3        1 UNL1     0.1456
     5 C         -1.235378   1.944125   3.046945 C.3        1 UNL1     0.2326
     6 O         -0.989906   0.549599   3.214001 O.3        1 UNL1     -0.3076
     7 O         -0.042942   2.744158   3.143711 O.3        1 UNL1     -0.4605
     8 C         1.095826   2.206629   2.571174 C.ar        1 UNL1     0.1310
     9 C         1.858445   2.808899   1.564704 C.ar        1 UNL1     0.0226
     10 C         3.008746   2.190606   1.060298 C.ar        1 UNL1     0.1343
     11 C         3.43804   0.964872   1.56737 C.ar        1 UNL1     0.1007
     12 C         2.662115   0.334377   2.54369 C.ar        1 UNL1     0.1389
     13 C         1.504081   0.955035   3.048835 C.ar        1 UNL1     0.0229
     14 C         4.691159   0.306963   1.13033 C.2        1 UNL1     0.1740
     15 C         5.112522   -0.887112   1.93543 C.3        1 UNL1     0.0520
     16 C         3.872609   -1.705293   2.268827 C.3        1 UNL1     0.1322
     17 O         2.931999   -0.921555   3.035689 O.3        1 UNL1     -0.4828
     18 C         3.264617   -2.422607   1.061131 C.ar        1 UNL1     -0.0067
     19 C         3.912151   -2.344437   -0.18899 C.ar        1 UNL1     -0.0516
     20 C         3.358403   -2.94898   -1.323826 C.ar        1 UNL1     -0.0198
     21 C         2.156613   -3.626802   -1.223397 C.ar        1 UNL1     0.1169
     22 C         1.512083   -3.749561   0.000674 C.ar        1 UNL1     -0.0198
     23 C         2.074949   -3.160823   1.139369 C.ar        1 UNL1     -0.0516
     24 O         1.628816   -4.170452   -2.357537 O.3        1 UNL1     -0.5068
     25 O         5.399862   0.736691   0.223931 O.2        1 UNL1     -0.2917
     26 O         3.707376   2.830204   0.078252 O.3        1 UNL1     -0.5058
     27 O         1.111663   0.026248   2.305092 O.3        1 UNL1     -0.3648
     28 O         -1.879623   -0.705749   0.423983 O.3        1 UNL1     -0.3841
     29 O         -0.287445   2.482455   0.03518 O.3        1 UNL1     -0.3863
     30 O         -3.327708   1.560218   1.880821 O.3        1 UNL1     -0.3829
     31 H         -0.487656   -1.164737   2.346551 H        1 UNL1     0.0937
     32 H         0.0   0.0   0.0 H        1 UNL1     0.0671
     33 H         -2.072343   1.592572   -0.290373 H        1 UNL1     0.0649
     34 H         -2.205766   3.260135   1.628904 H        1 UNL1     0.0683
     35 H         -1.928041   2.243712   3.843403 H        1 UNL1     0.1085
     36 H         1.608853   3.786981   1.168245 H        1 UNL1     0.0691
     37 H         0.916783   0.442839   3.807933 H        1 UNL1     0.0691
     38 H         5.598782   -0.518471   2.844925 H        1 UNL1     0.0385
     39 H         5.847892   -1.463856   1.364137 H        1 UNL1     0.0385
     40 H         4.186696   -2.504547   2.953709 H        1 UNL1     0.0789
     41 H         4.851849   -1.810402   -0.29588 H        1 UNL1     0.0623
     42 H         3.861303   -2.871514   -2.284608 H        1 UNL1     0.0654
     43 H         0.57816   -4.290924   0.09355 H        1 UNL1     0.0654
     44 H         1.549687   -3.285613   2.081374 H        1 UNL1     0.0623
     45 H         1.442915   -3.452387   -2.984068 H        1 UNL1     0.2921
     46 H         4.647408   2.859731   0.316748 H        1 UNL1     0.2922
     47 H         1.407209   -0.412055   3.115279 H        1 UNL1     0.2126
     48 H         -1.483704   -1.593271   0.327615 H        1 UNL1     0.2101
     49 H         0.300162   2.730575   0.766582 H        1 UNL1     0.2100
     50 H         -3.476378   1.007736   1.085602 H        1 UNL1     0.2102
@<TRIPOS>BOND
     1     1     2    1
     2     1     6    1
     3     2     3    1
     4     3     4    1
     5     3    29    1
     6     3    33    1
     7     4     5    1
     8     5     6    1
     9     5     7    1
    10     5    35    1
    11     7     8    1
    12     8     9   ar
    13     8    13   ar
    14     9    10   ar
    15     9    36    1
    16    10    11   ar
    17    10    26    1
    18    11    12   ar
    19    11    14    1
    20    12    13   ar
    21    12    17    1
    22    13    37    1
    23    14    15    1
    24    14    25    2
    25    15    16    1
    26    15    38    1
    27    15    39    1
    28    16    17    1
    29    16    18    1
    30    16    40    1
    31    18    19   ar
    32    18    23   ar
    33    19    20   ar
    34    19    41    1
    35    20    21   ar
    36    20    42    1
    37    21    22   ar
    38    21    24    1
    39    22    23   ar
    40    22    43    1
    41    23    44    1
    42    24    45    1
    43    26    46    1
    44    27    47    1
    45    28    48    1
    46    29    49    1
    47    30    50    1
    48     1    31    1
    49     1    27    1
    50     2    32    1
    51     2    28    1
    52     4    34    1
    53     4    30    1
