@<TRIPOS>MOLECULE
*****
 50 53 0 0 0
SMALL
GASTEIGER

@<TRIPOS>ATOM
     1 C         -0.323168   -1.362513   1.676283 C.3        1 UNL1     0.1889
     2 C         -0.46446   -0.977649   0.179 C.3        1 UNL1     0.1342
     3 C         -1.909486   -0.948868   -0.342092 C.3        1 UNL1     0.1174
     4 C         -2.794346   -2.018598   0.302747 C.3        1 UNL1     0.1456
     5 C         -2.630493   -2.076559   1.832504 C.3        1 UNL1     0.2326
     6 O         -1.263638   -2.30672   2.166572 O.3        1 UNL1     -0.3076
     7 O         -3.195913   -0.941405   2.512979 O.3        1 UNL1     -0.4605
     8 C         -3.706661   -1.184011   3.77544 C.ar        1 UNL1     0.1310
     9 C         -4.531302   -2.25938   4.123075 C.ar        1 UNL1     0.0226
     10 C         -4.984676   -2.42861   5.43674 C.ar        1 UNL1     0.1343
     11 C         -4.604579   -1.538927   6.440647 C.ar        1 UNL1     0.1007
     12 C         -3.81493   -0.438281   6.097402 C.ar        1 UNL1     0.1389
     13 C         -3.361362   -0.266875   4.775915 C.ar        1 UNL1     0.0229
     14 C         -4.985639   -1.716812   7.860965 C.2        1 UNL1     0.1740
     15 C         -4.308701   -0.797642   8.834839 C.3        1 UNL1     0.0520
     16 C         -4.228873   0.589515   8.21244 C.3        1 UNL1     0.1322
     17 O         -3.471414   0.556966   6.982697 O.3        1 UNL1     -0.4828
     18 C         -5.582653   1.295551   8.105121 C.ar        1 UNL1     -0.0067
     19 C         -5.950347   1.906991   6.888915 C.ar        1 UNL1     -0.0516
     20 C         -7.160162   2.601558   6.771068 C.ar        1 UNL1     -0.0198
     21 C         -8.005665   2.697915   7.861786 C.ar        1 UNL1     0.1169
     22 C         -7.686728   2.077973   9.062948 C.ar        1 UNL1     -0.0198
     23 C         -6.485535   1.367696   9.175631 C.ar        1 UNL1     -0.0516
     24 O         -9.157615   3.414465   7.720481 O.3        1 UNL1     -0.5068
     25 O         -5.741178   -2.602462   8.252463 O.2        1 UNL1     -0.2917
     26 O         -5.787277   -3.49765   5.709818 O.3        1 UNL1     -0.5058
     27 O         -0.206883   -0.242524   2.539353 O.3        1 UNL1     -0.3648
     28 O         0.256276   -1.942461   -0.609914 O.3        1 UNL1     -0.3841
     29 O         -2.461427   0.364827   -0.233932 O.3        1 UNL1     -0.3863
     30 O         -2.455836   -3.309386   -0.249493 O.3        1 UNL1     -0.3829
     31 H         0.63652   -1.88115   1.77675 H        1 UNL1     0.0937
     32 H         0.0   0.0   0.0 H        1 UNL1     0.0671
     33 H         -1.881998   -1.166034   -1.419033 H        1 UNL1     0.0649
     34 H         -3.845834   -1.831216   0.05849 H        1 UNL1     0.0683
     35 H         -3.18604   -2.976672   2.124126 H        1 UNL1     0.1085
     36 H         -4.816281   -3.016255   3.400546 H        1 UNL1     0.0691
     37 H         -2.748622   0.598945   4.534261 H        1 UNL1     0.0691
     38 H         -3.309372   -1.200677   9.030876 H        1 UNL1     0.0385
     39 H         -4.868188   -0.797368   9.776514 H        1 UNL1     0.0385
     40 H         -3.628491   1.213478   8.888259 H        1 UNL1     0.0789
     41 H         -5.299803   1.853484   6.020825 H        1 UNL1     0.0623
     42 H         -7.426934   3.078886   5.831385 H        1 UNL1     0.0654
     43 H         -8.348583   2.134392   9.918913 H        1 UNL1     0.0654
     44 H         -6.273283   0.886862   10.12568 H        1 UNL1     0.0623
     45 H         -8.923401   4.336376   7.525697 H        1 UNL1     0.2921
     46 H         -5.38778   -4.030172   6.415675 H        1 UNL1     0.2922
     47 H         0.52989   0.319362   2.261308 H        1 UNL1     0.2126
     48 H         1.196384   -1.864035   -0.357369 H        1 UNL1     0.2101
     49 H         -2.031486   0.956933   -0.871392 H        1 UNL1     0.2100
     50 H         -2.702017   -3.305614   -1.197698 H        1 UNL1     0.2102
@<TRIPOS>BOND
     1     1     2    1
     2     1     6    1
     3     2     3    1
     4     3     4    1
     5     3    29    1
     6     3    33    1
     7     4     5    1
     8     5     6    1
     9     5     7    1
    10     5    35    1
    11     7     8    1
    12     8     9   ar
    13     8    13   ar
    14     9    10   ar
    15     9    36    1
    16    10    11   ar
    17    10    26    1
    18    11    12   ar
    19    11    14    1
    20    12    13   ar
    21    12    17    1
    22    13    37    1
    23    14    15    1
    24    14    25    2
    25    15    16    1
    26    15    38    1
    27    15    39    1
    28    16    17    1
    29    16    18    1
    30    16    40    1
    31    18    19   ar
    32    18    23   ar
    33    19    20   ar
    34    19    41    1
    35    20    21   ar
    36    20    42    1
    37    21    22   ar
    38    21    24    1
    39    22    23   ar
    40    22    43    1
    41    23    44    1
    42    24    45    1
    43    26    46    1
    44    27    47    1
    45    28    48    1
    46    29    49    1
    47    30    50    1
    48     1    31    1
    49     1    27    1
    50     2    32    1
    51     2    28    1
    52     4    34    1
    53     4    30    1
