@<TRIPOS>MOLECULE
*****
 50 53 0 0 0
SMALL
GASTEIGER

@<TRIPOS>ATOM
     1 C         -0.286094   0.752499   -2.030443 C.3        1 UNL1     0.1889
     2 C         -0.028307   0.968323   -0.514888 C.3        1 UNL1     0.1342
     3 C         -1.04837   1.878806   0.185795 C.3        1 UNL1     0.1174
     4 C         -1.553023   3.008488   -0.715461 C.3        1 UNL1     0.1456
     5 C         -1.944501   2.513109   -2.119636 C.3        1 UNL1     0.2326
     6 O         -0.834997   1.858918   -2.731113 O.3        1 UNL1     -0.3076
     7 O         -3.14628   1.721373   -2.133768 O.3        1 UNL1     -0.4605
     8 C         -3.478191   1.144864   -3.346616 C.ar        1 UNL1     0.1310
     9 C         -4.599157   1.469293   -4.118291 C.ar        1 UNL1     0.0226
     10 C         -4.840271   0.839299   -5.345025 C.ar        1 UNL1     0.1343
     11 C         -3.952654   -0.114328   -5.841585 C.ar        1 UNL1     0.1007
     12 C         -2.851598   -0.476239   -5.060894 C.ar        1 UNL1     0.1389
     13 C         -2.610798   0.15546   -3.826227 C.ar        1 UNL1     0.0229
     14 C         -4.113913   -0.750258   -7.169645 C.2        1 UNL1     0.1740
     15 C         -2.954648   -1.580419   -7.637069 C.3        1 UNL1     0.0520
     16 C         -2.417059   -2.368597   -6.45059 C.3        1 UNL1     0.1322
     17 O         -1.973782   -1.478796   -5.40234 O.3        1 UNL1     -0.4828
     18 C         -3.349723   -3.487531   -5.980647 C.ar        1 UNL1     -0.0067
     19 C         -4.100111   -4.208885   -6.931846 C.ar        1 UNL1     -0.0516
     20 C         -4.997672   -5.206217   -6.532252 C.ar        1 UNL1     -0.0198
     21 C         -5.15897   -5.485945   -5.187053 C.ar        1 UNL1     0.1169
     22 C         -4.409626   -4.815825   -4.228793 C.ar        1 UNL1     -0.0198
     23 C         -3.498466   -3.831224   -4.629297 C.ar        1 UNL1     -0.0516
     24 O         -6.069927   -6.437502   -4.833361 O.3        1 UNL1     -0.5068
     25 O         -5.086528   -0.56222   -7.895695 O.2        1 UNL1     -0.2917
     26 O         -5.952206   1.20039   -6.048444 O.3        1 UNL1     -0.5058
     27 O         -0.983148   -0.448799   -2.319899 O.3        1 UNL1     -0.3648
     28 O         1.267834   1.574106   -0.354418 O.3        1 UNL1     -0.3841
     29 O         -2.109295   1.1084   0.754166 O.3        1 UNL1     -0.3863
     30 O         -0.518319   4.007314   -0.847459 O.3        1 UNL1     -0.3829
     31 H         0.694894   0.614412   -2.498068 H        1 UNL1     0.0937
     32 H         0.0   0.0   0.0 H        1 UNL1     0.0671
     33 H         -0.543592   2.353975   1.038516 H        1 UNL1     0.0649
     34 H         -2.415574   3.499831   -0.251792 H        1 UNL1     0.0683
     35 H         -2.122176   3.43606   -2.685739 H        1 UNL1     0.1085
     36 H         -5.296659   2.241967   -3.814012 H        1 UNL1     0.0691
     37 H         -1.747134   -0.145096   -3.236952 H        1 UNL1     0.0691
     38 H         -2.196253   -0.896829   -8.033389 H        1 UNL1     0.0385
     39 H         -3.286027   -2.233176   -8.451854 H        1 UNL1     0.0385
     40 H         -1.501879   -2.874884   -6.786209 H        1 UNL1     0.0789
     41 H         -3.99834   -4.001885   -7.993187 H        1 UNL1     0.0623
     42 H         -5.579313   -5.747239   -7.274547 H        1 UNL1     0.0654
     43 H         -4.517055   -5.03741   -3.173677 H        1 UNL1     0.0654
     44 H         -2.92195   -3.335044   -3.85452 H        1 UNL1     0.0623
     45 H         -5.992098   -6.596796   -3.878749 H        1 UNL1     0.2921
     46 H         -5.900506   2.142659   -6.273982 H        1 UNL1     0.2922
     47 H         -1.468506   -0.362033   -3.15222 H        1 UNL1     0.2126
     48 H         1.121265   2.538131   -0.300507 H        1 UNL1     0.2101
     49 H         -2.593411   0.645061   0.05221 H        1 UNL1     0.2100
     50 H         0.176272   3.811261   -0.185025 H        1 UNL1     0.2102
@<TRIPOS>BOND
     1     1     2    1
     2     1     6    1
     3     2     3    1
     4     3     4    1
     5     3    29    1
     6     3    33    1
     7     4     5    1
     8     5     6    1
     9     5     7    1
    10     5    35    1
    11     7     8    1
    12     8     9   ar
    13     8    13   ar
    14     9    10   ar
    15     9    36    1
    16    10    11   ar
    17    10    26    1
    18    11    12   ar
    19    11    14    1
    20    12    13   ar
    21    12    17    1
    22    13    37    1
    23    14    15    1
    24    14    25    2
    25    15    16    1
    26    15    38    1
    27    15    39    1
    28    16    17    1
    29    16    18    1
    30    16    40    1
    31    18    19   ar
    32    18    23   ar
    33    19    20   ar
    34    19    41    1
    35    20    21   ar
    36    20    42    1
    37    21    22   ar
    38    21    24    1
    39    22    23   ar
    40    22    43    1
    41    23    44    1
    42    24    45    1
    43    26    46    1
    44    27    47    1
    45    28    48    1
    46    29    49    1
    47    30    50    1
    48     1    31    1
    49     1    27    1
    50     2    32    1
    51     2    28    1
    52     4    34    1
    53     4    30    1
