@<TRIPOS>MOLECULE
*****
 50 53 0 0 0
SMALL
GASTEIGER

@<TRIPOS>ATOM
     1 C         -1.070993   -1.583917   1.05593 C.3        1 UNL1     0.1889
     2 C         -0.647637   -0.850843   -0.245344 C.3        1 UNL1     0.1342
     3 C         -1.815998   -0.357569   -1.112568 C.3        1 UNL1     0.1174
     4 C         -3.023019   -1.298122   -1.072846 C.3        1 UNL1     0.1456
     5 C         -3.383755   -1.735296   0.358626 C.3        1 UNL1     0.2326
     6 O         -2.258757   -2.357883   0.974771 O.3        1 UNL1     -0.3076
     7 O         -3.952356   -0.679413   1.154318 O.3        1 UNL1     -0.4605
     8 C         -4.882323   -1.06793   2.101811 C.ar        1 UNL1     0.1310
     9 C         -6.103183   -1.694605   1.829637 C.ar        1 UNL1     0.0226
     10 C         -6.972228   -2.065882   2.862505 C.ar        1 UNL1     0.1343
     11 C         -6.630384   -1.840732   4.19528 C.ar        1 UNL1     0.1007
     12 C         -5.43255   -1.178706   4.47759 C.ar        1 UNL1     0.1389
     13 C         -4.560113   -0.803112   3.438738 C.ar        1 UNL1     0.0229
     14 C         -7.47221   -2.287758   5.329145 C.2        1 UNL1     0.1740
     15 C         -6.849391   -2.163727   6.688654 C.3        1 UNL1     0.0520
     16 C         -6.085404   -0.848255   6.750403 C.3        1 UNL1     0.1322
     17 O         -5.047863   -0.810193   5.745849 O.3        1 UNL1     -0.4828
     18 C         -6.987832   0.387713   6.777455 C.ar        1 UNL1     -0.0067
     19 C         -6.420101   1.654442   7.025028 C.ar        1 UNL1     -0.0516
     20 C         -7.223078   2.798572   7.103498 C.ar        1 UNL1     -0.0198
     21 C         -8.592824   2.688394   6.943861 C.ar        1 UNL1     0.1169
     22 C         -9.177576   1.459761   6.665713 C.ar        1 UNL1     -0.0198
     23 C         -8.372775   0.318282   6.568874 C.ar        1 UNL1     -0.0516
     24 O         -9.346754   3.818625   7.064556 O.3        1 UNL1     -0.5068
     25 O         -8.577628   -2.804137   5.18812 O.2        1 UNL1     -0.2917
     26 O         -8.148191   -2.672503   2.529777 O.3        1 UNL1     -0.5058
     27 O         -1.067831   -0.748067   2.202286 O.3        1 UNL1     -0.3648
     28 O         0.128474   -1.759148   -1.048676 O.3        1 UNL1     -0.3841
     29 O         -2.154949   0.991882   -0.786644 O.3        1 UNL1     -0.3863
     30 O         -2.732716   -2.474826   -1.858201 O.3        1 UNL1     -0.3829
     31 H         -0.294094   -2.328073   1.262659 H        1 UNL1     0.0937
     32 H         0.0   0.0   0.0 H        1 UNL1     0.0671
     33 H         -1.470417   -0.327882   -2.155359 H        1 UNL1     0.0649
     34 H         -3.890994   -0.812287   -1.532178 H        1 UNL1     0.0683
     35 H         -4.140839   -2.516158   0.213861 H        1 UNL1     0.1085
     36 H         -6.401248   -1.947571   0.818061 H        1 UNL1     0.0691
     37 H         -3.634095   -0.287949   3.684891 H        1 UNL1     0.0691
     38 H         -6.177082   -3.017649   6.82409 H        1 UNL1     0.0385
     39 H         -7.634714   -2.222577   7.449957 H        1 UNL1     0.0385
     40 H         -5.543361   -0.833255   7.705644 H        1 UNL1     0.0789
     41 H         -5.348579   1.766039   7.163001 H        1 UNL1     0.0623
     42 H         -6.774724   3.767947   7.306723 H        1 UNL1     0.0654
     43 H         -10.247512   1.364509   6.524029 H        1 UNL1     0.0654
     44 H         -8.862005   -0.623561   6.339892 H        1 UNL1     0.0623
     45 H         -8.832826   4.478969   7.557042 H        1 UNL1     0.2921
     46 H         -8.298289   -3.43081   3.116167 H        1 UNL1     0.2922
     47 H         -1.925818   -0.312266   2.301258 H        1 UNL1     0.2126
     48 H         -0.170366   -1.642063   -1.971019 H        1 UNL1     0.2101
     49 H         -2.913293   1.004652   -0.181215 H        1 UNL1     0.2100
     50 H         -2.644484   -3.232975   -1.244086 H        1 UNL1     0.2102
@<TRIPOS>BOND
     1     1     2    1
     2     1     6    1
     3     2     3    1
     4     3     4    1
     5     3    29    1
     6     3    33    1
     7     4     5    1
     8     5     6    1
     9     5     7    1
    10     5    35    1
    11     7     8    1
    12     8     9   ar
    13     8    13   ar
    14     9    10   ar
    15     9    36    1
    16    10    11   ar
    17    10    26    1
    18    11    12   ar
    19    11    14    1
    20    12    13   ar
    21    12    17    1
    22    13    37    1
    23    14    15    1
    24    14    25    2
    25    15    16    1
    26    15    38    1
    27    15    39    1
    28    16    17    1
    29    16    18    1
    30    16    40    1
    31    18    19   ar
    32    18    23   ar
    33    19    20   ar
    34    19    41    1
    35    20    21   ar
    36    20    42    1
    37    21    22   ar
    38    21    24    1
    39    22    23   ar
    40    22    43    1
    41    23    44    1
    42    24    45    1
    43    26    46    1
    44    27    47    1
    45    28    48    1
    46    29    49    1
    47    30    50    1
    48     1    31    1
    49     1    27    1
    50     2    32    1
    51     2    28    1
    52     4    34    1
    53     4    30    1
