@<TRIPOS>MOLECULE
*****
 50 53 0 0 0
SMALL
GASTEIGER

@<TRIPOS>ATOM
     1 C         -0.350849   0.458366   2.106563 C.3        1 UNL1     0.1889
     2 C         0.372839   0.703072   0.755144 C.3        1 UNL1     0.1342
     3 C         1.904528   0.602489   0.820544 C.3        1 UNL1     0.1174
     4 C         2.476713   1.111919   2.145762 C.3        1 UNL1     0.1456
     5 C         1.712737   0.567622   3.3666 C.3        1 UNL1     0.2326
     6 O         0.331862   0.908535   3.267446 O.3        1 UNL1     -0.3076
     7 O         1.933823   -0.834787   3.602586 O.3        1 UNL1     -0.4605
     8 C         2.678155   -1.150703   4.724948 C.ar        1 UNL1     0.1310
     9 C         3.905194   -1.822756   4.720773 C.ar        1 UNL1     0.0226
     10 C         4.592534   -2.081836   5.912555 C.ar        1 UNL1     0.1343
     11 C         4.080464   -1.653674   7.136607 C.ar        1 UNL1     0.1007
     12 C         2.836247   -1.017846   7.157375 C.ar        1 UNL1     0.1389
     13 C         2.144067   -0.759802   5.959155 C.ar        1 UNL1     0.0229
     14 C         4.80454   -1.826516   8.417229 C.2        1 UNL1     0.1740
     15 C         4.215364   -1.111909   9.597805 C.3        1 UNL1     0.0520
     16 C         2.699696   -1.239286   9.530857 C.3        1 UNL1     0.1322
     17 O         2.188892   -0.650891   8.314328 O.3        1 UNL1     -0.4828
     18 C         2.186989   -2.653054   9.815666 C.ar        1 UNL1     -0.0067
     19 C         2.748576   -3.392742   10.876653 C.ar        1 UNL1     -0.0516
     20 C         2.33604   -4.705498   11.13443 C.ar        1 UNL1     -0.0198
     21 C         1.370173   -5.291089   10.335673 C.ar        1 UNL1     0.1169
     22 C         0.774547   -4.576668   9.304329 C.ar        1 UNL1     -0.0198
     23 C         1.173709   -3.257578   9.0579 C.ar        1 UNL1     -0.0516
     24 O         1.020838   -6.584159   10.593227 O.3        1 UNL1     -0.5068
     25 O         5.862897   -2.441528   8.51786 O.2        1 UNL1     -0.2917
     26 O         5.784077   -2.742536   5.839856 O.3        1 UNL1     -0.5058
     27 O         -0.826891   -0.869195   2.260682 O.3        1 UNL1     -0.3648
     28 O         0.049761   2.029609   0.298388 O.3        1 UNL1     -0.3841
     29 O         2.339828   -0.720839   0.502036 O.3        1 UNL1     -0.3863
     30 O         2.414895   2.554658   2.165043 O.3        1 UNL1     -0.3829
     31 H         -1.259277   1.07039   2.090266 H        1 UNL1     0.0937
     32 H         0.0   0.0   0.0 H        1 UNL1     0.0671
     33 H         2.316804   1.243699   0.028964 H        1 UNL1     0.0649
     34 H         3.533658   0.835247   2.227742 H        1 UNL1     0.0683
     35 H         2.122105   1.137225   4.210311 H        1 UNL1     0.1085
     36 H         4.382952   -2.131759   3.797526 H        1 UNL1     0.0691
     37 H         1.17659   -0.264214   6.002456 H        1 UNL1     0.0691
     38 H         4.526562   -0.063447   9.539404 H        1 UNL1     0.0385
     39 H         4.626589   -1.539994   10.518357 H        1 UNL1     0.0385
     40 H         2.286481   -0.613191   10.333215 H        1 UNL1     0.0789
     41 H         3.514877   -2.958811   11.51237 H        1 UNL1     0.0623
     42 H         2.785188   -5.269631   11.948084 H        1 UNL1     0.0654
     43 H         0.006519   -5.020451   8.682155 H        1 UNL1     0.0654
     44 H         0.679584   -2.725505   8.250693 H        1 UNL1     0.0623
     45 H         1.06298   -7.084566   9.762244 H        1 UNL1     0.2921
     46 H         5.878362   -3.32531   6.609854 H        1 UNL1     0.2922
     47 H         -1.103149   -1.021776   3.175155 H        1 UNL1     0.2126
     48 H         -0.8566   2.21925   0.608675 H        1 UNL1     0.2101
     49 H         2.021305   -1.343841   1.174499 H        1 UNL1     0.2100
     50 H         1.482825   2.814485   2.318171 H        1 UNL1     0.2102
@<TRIPOS>BOND
     1     1     2    1
     2     1     6    1
     3     2     3    1
     4     3     4    1
     5     3    29    1
     6     3    33    1
     7     4     5    1
     8     5     6    1
     9     5     7    1
    10     5    35    1
    11     7     8    1
    12     8     9   ar
    13     8    13   ar
    14     9    10   ar
    15     9    36    1
    16    10    11   ar
    17    10    26    1
    18    11    12   ar
    19    11    14    1
    20    12    13   ar
    21    12    17    1
    22    13    37    1
    23    14    15    1
    24    14    25    2
    25    15    16    1
    26    15    38    1
    27    15    39    1
    28    16    17    1
    29    16    18    1
    30    16    40    1
    31    18    19   ar
    32    18    23   ar
    33    19    20   ar
    34    19    41    1
    35    20    21   ar
    36    20    42    1
    37    21    22   ar
    38    21    24    1
    39    22    23   ar
    40    22    43    1
    41    23    44    1
    42    24    45    1
    43    26    46    1
    44    27    47    1
    45    28    48    1
    46    29    49    1
    47    30    50    1
    48     1    31    1
    49     1    27    1
    50     2    32    1
    51     2    28    1
    52     4    34    1
    53     4    30    1
