@<TRIPOS>MOLECULE
*****
 50 53 0 0 0
SMALL
GASTEIGER

@<TRIPOS>ATOM
     1 C         -0.332877   -1.32848   1.70151 C.3        1 UNL1     0.1889
     2 C         -0.462879   -0.975249   0.195433 C.3        1 UNL1     0.1342
     3 C         -1.903592   -0.962057   -0.338081 C.3        1 UNL1     0.1174
     4 C         -2.790452   -2.021082   0.32151 C.3        1 UNL1     0.1456
     5 C         -2.639182   -2.046734   1.853445 C.3        1 UNL1     0.2326
     6 O         -1.274448   -2.265403   2.203521 O.3        1 UNL1     -0.3076
     7 O         -3.213802   -0.89957   2.505477 O.3        1 UNL1     -0.4605
     8 C         -3.72369   -1.114994   3.773206 C.ar        1 UNL1     0.1310
     9 C         -4.540368   -2.187782   4.146655 C.ar        1 UNL1     0.0226
     10 C         -4.993485   -2.328158   5.463804 C.ar        1 UNL1     0.1343
     11 C         -4.620998   -1.411197   6.44578 C.ar        1 UNL1     0.1007
     12 C         -3.839508   -0.3133   6.076077 C.ar        1 UNL1     0.1389
     13 C         -3.386208   -0.170941   4.751055 C.ar        1 UNL1     0.0229
     14 C         -5.001823   -1.55705   7.869807 C.2        1 UNL1     0.1740
     15 C         -4.332705   -0.609077   8.821215 C.3        1 UNL1     0.0520
     16 C         -4.262981   0.762943   8.164969 C.3        1 UNL1     0.1322
     17 O         -3.504314   0.705995   6.936861 O.3        1 UNL1     -0.4828
     18 C         -5.62203   1.455741   8.039508 C.ar        1 UNL1     -0.0067
     19 C         -6.000868   2.018773   6.80351 C.ar        1 UNL1     -0.0516
     20 C         -7.215942   2.700642   6.667083 C.ar        1 UNL1     -0.0198
     21 C         -8.055694   2.832391   7.758544 C.ar        1 UNL1     0.1169
     22 C         -7.725642   2.259986   8.980124 C.ar        1 UNL1     -0.0198
     23 C         -6.519115   1.562169   9.112031 C.ar        1 UNL1     -0.0516
     24 O         -9.213189   3.535719   7.597501 O.3        1 UNL1     -0.5068
     25 O         -5.750885   -2.438575   8.282486 O.2        1 UNL1     -0.2917
     26 O         -5.788112   -3.396281   5.762577 O.3        1 UNL1     -0.5058
     27 O         -0.227295   -0.190439   2.542047 O.3        1 UNL1     -0.3648
     28 O         0.267423   -1.953848   -0.567266 O.3        1 UNL1     -0.3841
     29 O         -2.460518   0.351773   -0.26182 O.3        1 UNL1     -0.3863
     30 O         -2.443315   -3.321932   -0.200961 O.3        1 UNL1     -0.3829
     31 H         0.627556   -1.841753   1.820672 H        1 UNL1     0.0937
     32 H         0.0   0.0   0.0 H        1 UNL1     0.0671
     33 H         -1.866444   -1.20144   -1.410012 H        1 UNL1     0.0649
     34 H         -3.840447   -1.842279   0.06472 H        1 UNL1     0.0683
     35 H         -3.194326   -2.942427   2.159106 H        1 UNL1     0.1085
     36 H         -4.818978   -2.964338   3.442767 H        1 UNL1     0.0691
     37 H         -2.779908   0.693349   4.488575 H        1 UNL1     0.0691
     38 H         -3.330483   -0.99951   9.027706 H        1 UNL1     0.0385
     39 H         -4.89293   -0.589956   9.762258 H        1 UNL1     0.0385
     40 H         -3.667924   1.407898   8.82562 H        1 UNL1     0.0789
     41 H         -5.355056   1.936937   5.934097 H        1 UNL1     0.0623
     42 H         -7.491358   3.140676   5.71182 H        1 UNL1     0.0654
     43 H         -8.382856   2.344204   9.83738 H        1 UNL1     0.0654
     44 H         -6.298134   1.118669   10.078116 H        1 UNL1     0.0623
     45 H         -8.986893   4.443227   7.336854 H        1 UNL1     0.2921
     46 H         -5.384431   -3.909006   6.480607 H        1 UNL1     0.2922
     47 H         0.515965   0.363047   2.264419 H        1 UNL1     0.2126
     48 H         1.200308   -1.888441   -0.285878 H        1 UNL1     0.2101
     49 H         -2.021282   0.93407   -0.901974 H        1 UNL1     0.2100
     50 H         -2.676372   -3.336732   -1.15237 H        1 UNL1     0.2102
@<TRIPOS>BOND
     1     1     2    1
     2     1     6    1
     3     2     3    1
     4     3     4    1
     5     3    29    1
     6     3    33    1
     7     4     5    1
     8     5     6    1
     9     5     7    1
    10     5    35    1
    11     7     8    1
    12     8     9   ar
    13     8    13   ar
    14     9    10   ar
    15     9    36    1
    16    10    11   ar
    17    10    26    1
    18    11    12   ar
    19    11    14    1
    20    12    13   ar
    21    12    17    1
    22    13    37    1
    23    14    15    1
    24    14    25    2
    25    15    16    1
    26    15    38    1
    27    15    39    1
    28    16    17    1
    29    16    18    1
    30    16    40    1
    31    18    19   ar
    32    18    23   ar
    33    19    20   ar
    34    19    41    1
    35    20    21   ar
    36    20    42    1
    37    21    22   ar
    38    21    24    1
    39    22    23   ar
    40    22    43    1
    41    23    44    1
    42    24    45    1
    43    26    46    1
    44    27    47    1
    45    28    48    1
    46    29    49    1
    47    30    50    1
    48     1    31    1
    49     1    27    1
    50     2    32    1
    51     2    28    1
    52     4    34    1
    53     4    30    1
