@<TRIPOS>MOLECULE
*****
 50 53 0 0 0
SMALL
GASTEIGER

@<TRIPOS>ATOM
     1 C         2.163837   0.097519   0.281253 C.3        1 UNL1     0.1889
     2 C         0.804049   -0.645592   0.374537 C.3        1 UNL1     0.1342
     3 C         0.4371   -1.136887   1.78324 C.3        1 UNL1     0.1174
     4 C         1.657254   -1.582915   2.592808 C.3        1 UNL1     0.1456
     5 C         2.819578   -0.576564   2.511417 C.3        1 UNL1     0.2326
     6 O         3.186713   -0.367108   1.149724 O.3        1 UNL1     -0.3076
     7 O         2.56851   0.648048   3.224587 O.3        1 UNL1     -0.4605
     8 C         1.914954   1.639608   2.51522 C.ar        1 UNL1     0.1310
     9 C         0.702741   2.233775   2.88238 C.ar        1 UNL1     0.0226
     10 C         0.127582   3.245394   2.104099 C.ar        1 UNL1     0.1343
     11 C         0.76332   3.704406   0.951283 C.ar        1 UNL1     0.1007
     12 C         1.953578   3.090465   0.552348 C.ar        1 UNL1     0.1389
     13 C         2.530351   2.071487   1.333659 C.ar        1 UNL1     0.0229
     14 C         0.242977   4.827461   0.13756 C.2        1 UNL1     0.1740
     15 C         1.163338   5.333941   -0.933871 C.3        1 UNL1     0.0520
     16 C         1.842671   4.139607   -1.589637 C.3        1 UNL1     0.1322
     17 O         2.607201   3.388787   -0.620702 O.3        1 UNL1     -0.4828
     18 C         0.902722   3.292158   -2.450479 C.ar        1 UNL1     -0.0067
     19 C         -0.483052   3.551255   -2.423773 C.ar        1 UNL1     -0.0516
     20 C         -1.375236   2.764716   -3.162236 C.ar        1 UNL1     -0.0198
     21 C         -0.895979   1.713933   -3.92381 C.ar        1 UNL1     0.1169
     22 C         0.466522   1.454867   -3.996713 C.ar        1 UNL1     -0.0198
     23 C         1.360662   2.25278   -3.272901 C.ar        1 UNL1     -0.0516
     24 O         -1.798366   0.946242   -4.599642 O.3        1 UNL1     -0.5068
     25 O         -0.832463   5.379078   0.355807 O.2        1 UNL1     -0.2917
     26 O         -1.056679   3.78276   2.516831 O.3        1 UNL1     -0.5058
     27 O         2.040353   1.51015   0.326094 O.3        1 UNL1     -0.3648
     28 O         0.856216   -1.801447   -0.482192 O.3        1 UNL1     -0.3841
     29 O         -0.356666   -0.165819   2.468145 O.3        1 UNL1     -0.3863
     30 O         2.113684   -2.860196   2.096909 O.3        1 UNL1     -0.3829
     31 H         2.563978   -0.106602   -0.717897 H        1 UNL1     0.0937
     32 H         -0.0   0.0   0.0 H        1 UNL1     0.0671
     33 H         -0.210517   -2.017889   1.673025 H        1 UNL1     0.0649
     34 H         1.377234   -1.727925   3.642076 H        1 UNL1     0.0683
     35 H         3.656544   -1.099815   2.990556 H        1 UNL1     0.1085
     36 H         0.187534   1.96032   3.796658 H        1 UNL1     0.0691
     37 H         3.456961   1.608878   1.000673 H        1 UNL1     0.0691
     38 H         1.89678   5.99242   -0.456383 H        1 UNL1     0.0385
     39 H         0.586623   5.927633   -1.651302 H        1 UNL1     0.0385
     40 H         2.594767   4.536487   -2.284877 H        1 UNL1     0.0789
     41 H         -0.885138   4.364507   -1.826614 H        1 UNL1     0.0623
     42 H         -2.442754   2.967096   -3.124018 H        1 UNL1     0.0654
     43 H         0.853958   0.643928   -4.601842 H        1 UNL1     0.0654
     44 H         2.4193   2.028536   -3.361471 H        1 UNL1     0.0623
     45 H         -1.458125   0.790066   -5.495501 H        1 UNL1     0.2921
     46 H         -0.990785   4.750782   2.515039 H        1 UNL1     0.2922
     47 H         1.24164   1.791438   -0.141661 H        1 UNL1     0.2126
     48 H         0.1505   -2.405314   -0.180461 H        1 UNL1     0.2101
     49 H         -0.017167   0.725094   2.287015 H        1 UNL1     0.2100
     50 H         2.489047   -2.719899   1.202967 H        1 UNL1     0.2102
@<TRIPOS>BOND
     1     1     2    1
     2     1     6    1
     3     2     3    1
     4     3     4    1
     5     3    29    1
     6     3    33    1
     7     4     5    1
     8     5     6    1
     9     5     7    1
    10     5    35    1
    11     7     8    1
    12     8     9   ar
    13     8    13   ar
    14     9    10   ar
    15     9    36    1
    16    10    11   ar
    17    10    26    1
    18    11    12   ar
    19    11    14    1
    20    12    13   ar
    21    12    17    1
    22    13    37    1
    23    14    15    1
    24    14    25    2
    25    15    16    1
    26    15    38    1
    27    15    39    1
    28    16    17    1
    29    16    18    1
    30    16    40    1
    31    18    19   ar
    32    18    23   ar
    33    19    20   ar
    34    19    41    1
    35    20    21   ar
    36    20    42    1
    37    21    22   ar
    38    21    24    1
    39    22    23   ar
    40    22    43    1
    41    23    44    1
    42    24    45    1
    43    26    46    1
    44    27    47    1
    45    28    48    1
    46    29    49    1
    47    30    50    1
    48     1    31    1
    49     1    27    1
    50     2    32    1
    51     2    28    1
    52     4    34    1
    53     4    30    1
