@<TRIPOS>MOLECULE
*****
 50 53 0 0 0
SMALL
GASTEIGER

@<TRIPOS>ATOM
     1 C         -0.050284   -1.176147   1.839825 C.3        1 UNL1     0.1889
     2 C         -0.296805   -1.007646   0.316416 C.3        1 UNL1     0.1342
     3 C         -1.743123   -1.267939   -0.131777 C.3        1 UNL1     0.1174
     4 C         -2.425834   -2.372716   0.678465 C.3        1 UNL1     0.1456
     5 C         -2.20823   -2.213292   2.194247 C.3        1 UNL1     0.2326
     6 O         -0.812613   -2.18579   2.484704 O.3        1 UNL1     -0.3076
     7 O         -2.926529   -1.103308   2.762844 O.3        1 UNL1     -0.4605
     8 C         -3.353251   -1.26253   4.069016 C.ar        1 UNL1     0.1310
     9 C         -3.981594   -2.401945   4.583039 C.ar        1 UNL1     0.0226
     10 C         -4.362118   -2.473821   5.928378 C.ar        1 UNL1     0.1343
     11 C         -4.10179   -1.416243   6.79878 C.ar        1 UNL1     0.1007
     12 C         -3.511932   -0.257028   6.287828 C.ar        1 UNL1     0.1389
     13 C         -3.131803   -0.183975   4.934464 C.ar        1 UNL1     0.0229
     14 C         -4.406409   -1.471792   8.247323 C.2        1 UNL1     0.1740
     15 C         -3.858996   -0.34237   9.069694 C.3        1 UNL1     0.0520
     16 C         -4.024063   0.950587   8.282944 C.3        1 UNL1     0.1322
     17 O         -3.30836   0.883264   7.029826 O.3        1 UNL1     -0.4828
     18 C         -5.477113   1.415461   8.159405 C.ar        1 UNL1     -0.0067
     19 C         -5.892116   2.579093   8.839073 C.ar        1 UNL1     -0.0516
     20 C         -7.224535   3.005452   8.785769 C.ar        1 UNL1     -0.0198
     21 C         -8.151023   2.274474   8.063884 C.ar        1 UNL1     0.1169
     22 C         -7.765814   1.142952   7.3567 C.ar        1 UNL1     -0.0198
     23 C         -6.429651   0.726689   7.394776 C.ar        1 UNL1     -0.0516
     24 O         -9.447163   2.69923   8.065926 O.3        1 UNL1     -0.5068
     25 O         -4.996098   -2.408982   8.778761 O.2        1 UNL1     -0.2917
     26 O         -4.971972   -3.612946   6.366621 O.3        1 UNL1     -0.5058
     27 O         -0.087945   0.047187   2.557337 O.3        1 UNL1     -0.3648
     28 O         0.544252   -1.940196   -0.387628 O.3        1 UNL1     -0.3841
     29 O         -2.49408   -0.052305   -0.152566 O.3        1 UNL1     -0.3863
     30 O         -1.902679   -3.65432   0.266774 O.3        1 UNL1     -0.3829
     31 H         0.982486   -1.523486   1.953058 H        1 UNL1     0.0937
     32 H         0.0   0.0   0.0 H        1 UNL1     0.0671
     33 H         -1.714205   -1.610907   -1.175451 H        1 UNL1     0.0649
     34 H         -3.500707   -2.382165   0.466428 H        1 UNL1     0.0683
     35 H         -2.603849   -3.144981   2.617709 H        1 UNL1     0.1085
     36 H         -4.16129   -3.279062   3.971079 H        1 UNL1     0.0691
     37 H         -2.675268   0.730159   4.561064 H        1 UNL1     0.0691
     38 H         -2.802092   -0.555113   9.262619 H        1 UNL1     0.0385
     39 H         -4.382787   -0.311729   10.031194 H        1 UNL1     0.0385
     40 H         -3.513101   1.741306   8.848807 H        1 UNL1     0.0789
     41 H         -5.18601   3.165211   9.420046 H        1 UNL1     0.0623
     42 H         -7.534687   3.897777   9.323889 H        1 UNL1     0.0654
     43 H         -8.480079   0.571558   6.775971 H        1 UNL1     0.0654
     44 H         -6.161716   -0.155799   6.821826 H        1 UNL1     0.0623
     45 H         -9.613002   3.181986   7.239996 H        1 UNL1     0.2921
     46 H         -4.660548   -3.823   7.261218 H        1 UNL1     0.2922
     47 H         0.501681   0.694697   2.146325 H        1 UNL1     0.2126
     48 H         1.153977   -1.408832   -0.935004 H        1 UNL1     0.2101
     49 H         -3.014561   0.028052   0.662564 H        1 UNL1     0.2100
     50 H         -0.977803   -3.521907   -0.027819 H        1 UNL1     0.2102
@<TRIPOS>BOND
     1     1     2    1
     2     1     6    1
     3     2     3    1
     4     3     4    1
     5     3    29    1
     6     3    33    1
     7     4     5    1
     8     5     6    1
     9     5     7    1
    10     5    35    1
    11     7     8    1
    12     8     9   ar
    13     8    13   ar
    14     9    10   ar
    15     9    36    1
    16    10    11   ar
    17    10    26    1
    18    11    12   ar
    19    11    14    1
    20    12    13   ar
    21    12    17    1
    22    13    37    1
    23    14    15    1
    24    14    25    2
    25    15    16    1
    26    15    38    1
    27    15    39    1
    28    16    17    1
    29    16    18    1
    30    16    40    1
    31    18    19   ar
    32    18    23   ar
    33    19    20   ar
    34    19    41    1
    35    20    21   ar
    36    20    42    1
    37    21    22   ar
    38    21    24    1
    39    22    23   ar
    40    22    43    1
    41    23    44    1
    42    24    45    1
    43    26    46    1
    44    27    47    1
    45    28    48    1
    46    29    49    1
    47    30    50    1
    48     1    31    1
    49     1    27    1
    50     2    32    1
    51     2    28    1
    52     4    34    1
    53     4    30    1
