@<TRIPOS>MOLECULE
*****
 50 53 0 0 0
SMALL
GASTEIGER

@<TRIPOS>ATOM
     1 C         -0.369037   -1.397261   1.637766 C.3        1 UNL1     0.1889
     2 C         -0.486969   -0.971631   0.149522 C.3        1 UNL1     0.1342
     3 C         -1.925718   -0.898513   -0.384446 C.3        1 UNL1     0.1174
     4 C         -2.839637   -1.964913   0.224373 C.3        1 UNL1     0.1456
     5 C         -2.692513   -2.06513   1.753646 C.3        1 UNL1     0.2326
     6 O         -1.334316   -2.333093   2.094767 O.3        1 UNL1     -0.3076
     7 O         -3.240461   -0.935655   2.457465 O.3        1 UNL1     -0.4605
     8 C         -3.768985   -1.199101   3.708379 C.ar        1 UNL1     0.1310
     9 C         -4.611474   -2.270849   4.02281 C.ar        1 UNL1     0.0226
     10 C         -5.08228   -2.462823   5.327183 C.ar        1 UNL1     0.1343
     11 C         -4.702422   -1.600444   6.354729 C.ar        1 UNL1     0.1007
     12 C         -3.894643   -0.503061   6.044847 C.ar        1 UNL1     0.1389
     13 C         -3.423524   -0.308744   4.732704 C.ar        1 UNL1     0.0229
     14 C         -5.10228   -1.80436   7.766354 C.2        1 UNL1     0.1740
     15 C         -4.424894   -0.915764   8.7679 C.3        1 UNL1     0.0520
     16 C         -4.319866   0.483522   8.177202 C.3        1 UNL1     0.1322
     17 O         -3.548612   0.467929   6.95573 O.3        1 UNL1     -0.4828
     18 C         -5.663049   1.209548   8.070104 C.ar        1 UNL1     -0.0067
     19 C         -5.759824   2.37411   7.281026 C.ar        1 UNL1     -0.0516
     20 C         -6.960919   3.088723   7.199403 C.ar        1 UNL1     -0.0198
     21 C         -8.067835   2.654196   7.906334 C.ar        1 UNL1     0.1169
     22 C         -8.013043   1.492395   8.665317 C.ar        1 UNL1     -0.0198
     23 C         -6.817265   0.767364   8.732414 C.ar        1 UNL1     -0.0516
     24 O         -9.2095   3.396872   7.832612 O.3        1 UNL1     -0.5068
     25 O         -5.873733   -2.688326   8.129605 O.2        1 UNL1     -0.2917
     26 O         -5.901782   -3.526902   5.567471 O.3        1 UNL1     -0.5058
     27 O         -0.237637   -0.302264   2.530237 O.3        1 UNL1     -0.3648
     28 O         0.220975   -1.931458   -0.65686 O.3        1 UNL1     -0.3841
     29 O         -2.450607   0.423613   -0.24804 O.3        1 UNL1     -0.3863
     30 O         -2.523147   -3.248292   -0.357401 O.3        1 UNL1     -0.3829
     31 H         0.578319   -1.938845   1.734115 H        1 UNL1     0.0937
     32 H         0.0   0.0   0.0 H        1 UNL1     0.0671
     33 H         -1.891989   -1.088867   -1.466272 H        1 UNL1     0.0649
     34 H         -3.884374   -1.748778   -0.025052 H        1 UNL1     0.0683
     35 H         -3.270029   -2.960157   2.016858 H        1 UNL1     0.1085
     36 H         -4.897789   -3.007885   3.280567 H        1 UNL1     0.0691
     37 H         -2.796851   0.554   4.51719 H        1 UNL1     0.0691
     38 H         -3.433219   -1.336153   8.966344 H        1 UNL1     0.0385
     39 H         -4.995267   -0.928738   9.702932 H        1 UNL1     0.0385
     40 H         -3.719373   1.084548   8.873403 H        1 UNL1     0.0789
     41 H         -4.90269   2.740913   6.723866 H        1 UNL1     0.0623
     42 H         -7.019569   3.991876   6.597004 H        1 UNL1     0.0654
     43 H         -8.878153   1.13484   9.210889 H        1 UNL1     0.0654
     44 H         -6.813293   -0.141466   9.326432 H        1 UNL1     0.0623
     45 H         -9.040603   4.26049   8.242922 H        1 UNL1     0.2921
     46 H         -5.528617   -4.067943   6.281218 H        1 UNL1     0.2922
     47 H         0.506961   0.256542   2.267234 H        1 UNL1     0.2126
     48 H         1.173064   -1.778643   -0.502239 H        1 UNL1     0.2101
     49 H         -2.001973   1.022203   -0.866273 H        1 UNL1     0.2100
     50 H         -2.78056   -3.222731   -1.302281 H        1 UNL1     0.2102
@<TRIPOS>BOND
     1     1     2    1
     2     1     6    1
     3     2     3    1
     4     3     4    1
     5     3    29    1
     6     3    33    1
     7     4     5    1
     8     5     6    1
     9     5     7    1
    10     5    35    1
    11     7     8    1
    12     8     9   ar
    13     8    13   ar
    14     9    10   ar
    15     9    36    1
    16    10    11   ar
    17    10    26    1
    18    11    12   ar
    19    11    14    1
    20    12    13   ar
    21    12    17    1
    22    13    37    1
    23    14    15    1
    24    14    25    2
    25    15    16    1
    26    15    38    1
    27    15    39    1
    28    16    17    1
    29    16    18    1
    30    16    40    1
    31    18    19   ar
    32    18    23   ar
    33    19    20   ar
    34    19    41    1
    35    20    21   ar
    36    20    42    1
    37    21    22   ar
    38    21    24    1
    39    22    23   ar
    40    22    43    1
    41    23    44    1
    42    24    45    1
    43    26    46    1
    44    27    47    1
    45    28    48    1
    46    29    49    1
    47    30    50    1
    48     1    31    1
    49     1    27    1
    50     2    32    1
    51     2    28    1
    52     4    34    1
    53     4    30    1
