@<TRIPOS>MOLECULE
*****
 50 53 0 0 0
SMALL
GASTEIGER

@<TRIPOS>ATOM
     1 C         -1.382268   -1.68492   0.145546 C.3        1 UNL1     0.1889
     2 C         -0.914811   -0.349943   -0.494189 C.3        1 UNL1     0.1342
     3 C         -1.960804   0.775056   -0.466957 C.3        1 UNL1     0.1174
     4 C         -3.392212   0.258716   -0.633029 C.3        1 UNL1     0.1456
     5 C         -3.68811   -0.958586   0.261949 C.3        1 UNL1     0.2326
     6 O         -2.757059   -2.002549   -0.014009 O.3        1 UNL1     -0.3076
     7 O         -3.775451   -0.633551   1.66125 O.3        1 UNL1     -0.4605
     8 C         -4.850676   0.152367   2.035082 C.ar        1 UNL1     0.1310
     9 C         -5.745037   0.773053   1.156351 C.ar        1 UNL1     0.0226
     10 C         -6.816202   1.537376   1.634176 C.ar        1 UNL1     0.1343
     11 C         -7.033084   1.680054   3.004011 C.ar        1 UNL1     0.1007
     12 C         -6.122985   1.098944   3.891037 C.ar        1 UNL1     0.1389
     13 C         -5.044492   0.332665   3.410309 C.ar        1 UNL1     0.0229
     14 C         -8.196459   2.406228   3.563818 C.2        1 UNL1     0.1740
     15 C         -8.394692   2.27118   5.045038 C.3        1 UNL1     0.0520
     16 C         -7.032036   2.333954   5.721194 C.3        1 UNL1     0.1322
     17 O         -6.178747   1.26531   5.255397 O.3        1 UNL1     -0.4828
     18 C         -6.388476   3.722146   5.682761 C.ar        1 UNL1     -0.0067
     19 C         -5.858954   4.206641   4.469054 C.ar        1 UNL1     -0.0516
     20 C         -5.221546   5.451689   4.409639 C.ar        1 UNL1     -0.0198
     21 C         -5.10101   6.216773   5.555913 C.ar        1 UNL1     0.1169
     22 C         -5.641809   5.781595   6.758824 C.ar        1 UNL1     -0.0198
     23 C         -6.29552   4.54482   6.814557 C.ar        1 UNL1     -0.0516
     24 O         -4.44058   7.406911   5.467571 O.3        1 UNL1     -0.5068
     25 O         -9.006919   3.01895   2.873738 O.2        1 UNL1     -0.2917
     26 O         -7.651598   2.11736   0.724606 O.3        1 UNL1     -0.5058
     27 O         -0.960274   -1.845597   1.490496 O.3        1 UNL1     -0.3648
     28 O         -0.586076   -0.595917   -1.874093 O.3        1 UNL1     -0.3841
     29 O         -1.798019   1.590742   0.695063 O.3        1 UNL1     -0.3863
     30 O         -3.60355   -0.116447   -2.011535 O.3        1 UNL1     -0.3829
     31 H         -0.869534   -2.487586   -0.395665 H        1 UNL1     0.0937
     32 H         0.0   0.0   0.0 H        1 UNL1     0.0671
     33 H         -1.761503   1.438972   -1.319725 H        1 UNL1     0.0649
     34 H         -4.106704   1.057418   -0.405044 H        1 UNL1     0.0683
     35 H         -4.669794   -1.307521   -0.082175 H        1 UNL1     0.1085
     36 H         -5.663372   0.65426   0.081483 H        1 UNL1     0.0691
     37 H         -4.349434   -0.108383   4.12155 H        1 UNL1     0.0691
     38 H         -8.882086   1.307487   5.227442 H        1 UNL1     0.0385
     39 H         -9.065635   3.064767   5.391209 H        1 UNL1     0.0385
     40 H         -7.188792   2.115713   6.786237 H        1 UNL1     0.0789
     41 H         -5.932668   3.621052   3.557296 H        1 UNL1     0.0623
     42 H         -4.806818   5.80899   3.470305 H        1 UNL1     0.0654
     43 H         -5.566303   6.379488   7.659231 H        1 UNL1     0.0654
     44 H         -6.715407   4.240901   7.768587 H        1 UNL1     0.0623
     45 H         -4.300374   7.610904   4.528718 H        1 UNL1     0.2921
     46 H         -8.49029   2.346143   1.155496 H        1 UNL1     0.2922
     47 H         -0.190842   -1.287049   1.668985 H        1 UNL1     0.2126
     48 H         0.110985   -1.279894   -1.877917 H        1 UNL1     0.2101
     49 H         -1.922481   2.524725   0.462728 H        1 UNL1     0.2100
     50 H         -3.079907   -0.925486   -2.187506 H        1 UNL1     0.2102
@<TRIPOS>BOND
     1     1     2    1
     2     1     6    1
     3     2     3    1
     4     3     4    1
     5     3    29    1
     6     3    33    1
     7     4     5    1
     8     5     6    1
     9     5     7    1
    10     5    35    1
    11     7     8    1
    12     8     9   ar
    13     8    13   ar
    14     9    10   ar
    15     9    36    1
    16    10    11   ar
    17    10    26    1
    18    11    12   ar
    19    11    14    1
    20    12    13   ar
    21    12    17    1
    22    13    37    1
    23    14    15    1
    24    14    25    2
    25    15    16    1
    26    15    38    1
    27    15    39    1
    28    16    17    1
    29    16    18    1
    30    16    40    1
    31    18    19   ar
    32    18    23   ar
    33    19    20   ar
    34    19    41    1
    35    20    21   ar
    36    20    42    1
    37    21    22   ar
    38    21    24    1
    39    22    23   ar
    40    22    43    1
    41    23    44    1
    42    24    45    1
    43    26    46    1
    44    27    47    1
    45    28    48    1
    46    29    49    1
    47    30    50    1
    48     1    31    1
    49     1    27    1
    50     2    32    1
    51     2    28    1
    52     4    34    1
    53     4    30    1
