@<TRIPOS>MOLECULE
*****
 50 53 0 0 0
SMALL
GASTEIGER

@<TRIPOS>ATOM
     1 C         -1.499157   -0.520126   1.500934 C.3        1 UNL1     0.1889
     2 C         -0.667137   0.517593   0.700419 C.3        1 UNL1     0.1342
     3 C         0.162621   1.478798   1.565319 C.3        1 UNL1     0.1174
     4 C         -0.530921   1.842738   2.880487 C.3        1 UNL1     0.1456
     5 C         -1.107469   0.612072   3.603962 C.3        1 UNL1     0.2326
     6 O         -2.016092   -0.074593   2.746194 O.3        1 UNL1     -0.3076
     7 O         -0.098846   -0.247977   4.164601 O.3        1 UNL1     -0.4605
     8 C         -0.451279   -1.577036   4.316003 C.ar        1 UNL1     0.1310
     9 C         0.440096   -2.630721   4.545129 C.ar        1 UNL1     0.0226
     10 C         -0.017357   -3.944465   4.70234 C.ar        1 UNL1     0.1343
     11 C         -1.380634   -4.233152   4.657903 C.ar        1 UNL1     0.1007
     12 C         -2.277259   -3.195626   4.388851 C.ar        1 UNL1     0.1389
     13 C         -1.816829   -1.875163   4.228183 C.ar        1 UNL1     0.0229
     14 C         -1.924975   -5.589195   4.900789 C.2        1 UNL1     0.1740
     15 C         -3.416897   -5.67531   5.036078 C.3        1 UNL1     0.0520
     16 C         -4.048371   -4.750233   4.004851 C.3        1 UNL1     0.1322
     17 O         -3.628937   -3.384084   4.216468 O.3        1 UNL1     -0.4828
     18 C         -3.901342   -5.242877   2.563182 C.ar        1 UNL1     -0.0067
     19 C         -3.068274   -6.347296   2.290286 C.ar        1 UNL1     -0.0516
     20 C         -2.874434   -6.79383   0.977657 C.ar        1 UNL1     -0.0198
     21 C         -3.50079   -6.141356   -0.069139 C.ar        1 UNL1     0.1169
     22 C         -4.353502   -5.071729   0.170901 C.ar        1 UNL1     -0.0198
     23 C         -4.562054   -4.636545   1.485122 C.ar        1 UNL1     -0.0516
     24 O         -3.258354   -6.580945   -1.337361 O.3        1 UNL1     -0.5068
     25 O         -1.219899   -6.581337   5.065128 O.2        1 UNL1     -0.2917
     26 O         0.903813   -4.926669   4.922126 O.3        1 UNL1     -0.5058
     27 O         -0.864552   -1.78349   1.61915 O.3        1 UNL1     -0.3648
     28 O         -1.570105   1.318514   -0.084361 O.3        1 UNL1     -0.3841
     29 O         1.485341   0.973599   1.758497 O.3        1 UNL1     -0.3863
     30 O         -1.606439   2.767475   2.608801 O.3        1 UNL1     -0.3829
     31 H         -2.397969   -0.724203   0.908846 H        1 UNL1     0.0937
     32 H         0.0   0.0   0.0 H        1 UNL1     0.0671
     33 H         0.286943   2.414253   1.002125 H        1 UNL1     0.0649
     34 H         0.172976   2.356018   3.544922 H        1 UNL1     0.0683
     35 H         -1.701707   1.039914   4.421098 H        1 UNL1     0.1085
     36 H         1.506848   -2.463453   4.64604 H        1 UNL1     0.0691
     37 H         -2.535136   -1.085514   4.018462 H        1 UNL1     0.0691
     38 H         -3.675455   -5.366474   6.054555 H        1 UNL1     0.0385
     39 H         -3.729702   -6.716779   4.904652 H        1 UNL1     0.0385
     40 H         -5.129398   -4.738767   4.199197 H        1 UNL1     0.0789
     41 H         -2.558137   -6.870753   3.093656 H        1 UNL1     0.0623
     42 H         -2.220229   -7.639152   0.779015 H        1 UNL1     0.0654
     43 H         -4.86086   -4.563022   -0.640095 H        1 UNL1     0.0654
     44 H         -5.243035   -3.804637   1.636909 H        1 UNL1     0.0623
     45 H         -2.964545   -7.505183   -1.290683 H        1 UNL1     0.2921
     46 H         0.447598   -5.766338   5.09016 H        1 UNL1     0.2922
     47 H         -1.151407   -2.22777   2.429205 H        1 UNL1     0.2126
     48 H         -1.372402   1.126203   -1.021198 H        1 UNL1     0.2101
     49 H         1.471217   0.250611   2.405709 H        1 UNL1     0.2100
     50 H         -1.733523   3.32437   3.404685 H        1 UNL1     0.2102
@<TRIPOS>BOND
     1     1     2    1
     2     1     6    1
     3     2     3    1
     4     3     4    1
     5     3    29    1
     6     3    33    1
     7     4     5    1
     8     5     6    1
     9     5     7    1
    10     5    35    1
    11     7     8    1
    12     8     9   ar
    13     8    13   ar
    14     9    10   ar
    15     9    36    1
    16    10    11   ar
    17    10    26    1
    18    11    12   ar
    19    11    14    1
    20    12    13   ar
    21    12    17    1
    22    13    37    1
    23    14    15    1
    24    14    25    2
    25    15    16    1
    26    15    38    1
    27    15    39    1
    28    16    17    1
    29    16    18    1
    30    16    40    1
    31    18    19   ar
    32    18    23   ar
    33    19    20   ar
    34    19    41    1
    35    20    21   ar
    36    20    42    1
    37    21    22   ar
    38    21    24    1
    39    22    23   ar
    40    22    43    1
    41    23    44    1
    42    24    45    1
    43    26    46    1
    44    27    47    1
    45    28    48    1
    46    29    49    1
    47    30    50    1
    48     1    31    1
    49     1    27    1
    50     2    32    1
    51     2    28    1
    52     4    34    1
    53     4    30    1
