@<TRIPOS>MOLECULE
*****
 50 53 0 0 0
SMALL
GASTEIGER

@<TRIPOS>ATOM
     1 C         -0.291831   -1.308296   1.724529 C.3        1 UNL1     0.1889
     2 C         -0.440925   -0.981446   0.214271 C.3        1 UNL1     0.1342
     3 C         -1.885724   -1.006436   -0.307645 C.3        1 UNL1     0.1174
     4 C         -2.745154   -2.073144   0.375459 C.3        1 UNL1     0.1456
     5 C         -2.581419   -2.07168   1.906326 C.3        1 UNL1     0.2326
     6 O         -1.209733   -2.256541   2.248631 O.3        1 UNL1     -0.3076
     7 O         -3.174696   -0.926595   2.54517 O.3        1 UNL1     -0.4605
     8 C         -3.670066   -1.132664   3.820189 C.ar        1 UNL1     0.1310
     9 C         -4.46128   -2.216154   4.216837 C.ar        1 UNL1     0.0226
     10 C         -4.901071   -2.34525   5.539645 C.ar        1 UNL1     0.1343
     11 C         -4.540104   -1.405518   6.504241 C.ar        1 UNL1     0.1007
     12 C         -3.784563   -0.297597   6.111236 C.ar        1 UNL1     0.1389
     13 C         -3.344692   -0.166638   4.780525 C.ar        1 UNL1     0.0229
     14 C         -4.906671   -1.536921   7.933407 C.2        1 UNL1     0.1740
     15 C         -4.250031   -0.560524   8.864547 C.3        1 UNL1     0.0520
     16 C         -4.214028   0.802207   8.186589 C.3        1 UNL1     0.1322
     17 O         -3.463957   0.741766   6.953378 O.3        1 UNL1     -0.4828
     18 C         -5.588151   1.46467   8.061477 C.ar        1 UNL1     -0.0067
     19 C         -5.988278   2.000326   6.820032 C.ar        1 UNL1     -0.0516
     20 C         -7.21832   2.654672   6.682953 C.ar        1 UNL1     -0.0198
     21 C         -8.05208   2.786072   7.779039 C.ar        1 UNL1     0.1169
     22 C         -7.700645   2.239811   9.00661 C.ar        1 UNL1     -0.0198
     23 C         -6.478851   1.569274   9.139487 C.ar        1 UNL1     -0.0516
     24 O         -9.225196   3.462678   7.616547 O.3        1 UNL1     -0.5068
     25 O         -5.633963   -2.4272   8.365767 O.2        1 UNL1     -0.2917
     26 O         -5.67092   -3.42479   5.861376 O.3        1 UNL1     -0.5058
     27 O         -0.203412   -0.155298   2.546456 O.3        1 UNL1     -0.3648
     28 O         0.30362   -1.95653   -0.539101 O.3        1 UNL1     -0.3841
     29 O         -2.469282   0.296614   -0.247209 O.3        1 UNL1     -0.3863
     30 O         -2.37509   -3.374545   -0.129614 O.3        1 UNL1     -0.3829
     31 H         0.679985   -1.799646   1.843806 H        1 UNL1     0.0937
     32 H         0.0   0.0   0.0 H        1 UNL1     0.0671
     33 H         -1.851974   -1.261745   -1.376007 H        1 UNL1     0.0649
     34 H         -3.800619   -1.920159   0.124482 H        1 UNL1     0.0683
     35 H         -3.115382   -2.973781   2.230327 H        1 UNL1     0.1085
     36 H         -4.729147   -3.009233   3.527348 H        1 UNL1     0.0691
     37 H         -2.758594   0.705807   4.499769 H        1 UNL1     0.0691
     38 H         -3.238311   -0.926844   9.068898 H        1 UNL1     0.0385
     39 H         -4.803163   -0.538281   9.809707 H        1 UNL1     0.0385
     40 H         -3.62739   1.469604   8.832311 H        1 UNL1     0.0789
     41 H         -5.347713   1.918282   5.946764 H        1 UNL1     0.0623
     42 H         -7.510295   3.073906   5.723263 H        1 UNL1     0.0654
     43 H         -8.352752   2.32381   9.867778 H        1 UNL1     0.0654
     44 H         -6.241139   1.145618   10.110493 H        1 UNL1     0.0623
     45 H         -9.019895   4.370487   7.340047 H        1 UNL1     0.2921
     46 H         -5.251051   -3.917747   6.583951 H        1 UNL1     0.2922
     47 H         0.526075   0.408961   2.25436 H        1 UNL1     0.2126
     48 H         1.237111   -1.867427   -0.266359 H        1 UNL1     0.2101
     49 H         -2.047284   0.87779   -0.899854 H        1 UNL1     0.2100
     50 H         -2.615214   -3.409054   -1.078751 H        1 UNL1     0.2102
@<TRIPOS>BOND
     1     1     2    1
     2     1     6    1
     3     2     3    1
     4     3     4    1
     5     3    29    1
     6     3    33    1
     7     4     5    1
     8     5     6    1
     9     5     7    1
    10     5    35    1
    11     7     8    1
    12     8     9   ar
    13     8    13   ar
    14     9    10   ar
    15     9    36    1
    16    10    11   ar
    17    10    26    1
    18    11    12   ar
    19    11    14    1
    20    12    13   ar
    21    12    17    1
    22    13    37    1
    23    14    15    1
    24    14    25    2
    25    15    16    1
    26    15    38    1
    27    15    39    1
    28    16    17    1
    29    16    18    1
    30    16    40    1
    31    18    19   ar
    32    18    23   ar
    33    19    20   ar
    34    19    41    1
    35    20    21   ar
    36    20    42    1
    37    21    22   ar
    38    21    24    1
    39    22    23   ar
    40    22    43    1
    41    23    44    1
    42    24    45    1
    43    26    46    1
    44    27    47    1
    45    28    48    1
    46    29    49    1
    47    30    50    1
    48     1    31    1
    49     1    27    1
    50     2    32    1
    51     2    28    1
    52     4    34    1
    53     4    30    1
