@<TRIPOS>MOLECULE
*****
 50 53 0 0 0
SMALL
GASTEIGER

@<TRIPOS>ATOM
     1 C         -0.345569   -1.336324   1.692815 C.3        1 UNL1     0.1889
     2 C         -0.469086   -0.973659   0.188436 C.3        1 UNL1     0.1342
     3 C         -1.90812   -0.94903   -0.349189 C.3        1 UNL1     0.1174
     4 C         -2.803032   -2.006681   0.301675 C.3        1 UNL1     0.1456
     5 C         -2.656428   -2.042051   1.833869 C.3        1 UNL1     0.2326
     6 O         -1.29402   -2.27065   2.186649 O.3        1 UNL1     -0.3076
     7 O         -3.226322   -0.895355   2.490854 O.3        1 UNL1     -0.4605
     8 C         -3.741606   -1.115232   3.755632 C.ar        1 UNL1     0.1310
     9 C         -4.563046   -2.187203   4.120893 C.ar        1 UNL1     0.0226
     10 C         -5.021507   -2.332449   5.435662 C.ar        1 UNL1     0.1343
     11 C         -4.649796   -1.421387   6.423405 C.ar        1 UNL1     0.1007
     12 C         -3.863479   -0.324214   6.061881 C.ar        1 UNL1     0.1389
     13 C         -3.404798   -0.176947   4.739249 C.ar        1 UNL1     0.0229
     14 C         -5.036382   -1.572852   7.845292 C.2        1 UNL1     0.1740
     15 C         -4.367831   -0.631571   8.803718 C.3        1 UNL1     0.0520
     16 C         -4.29134   0.743348   8.15433 C.3        1 UNL1     0.1322
     17 O         -3.528285   0.689881   6.928786 O.3        1 UNL1     -0.4828
     18 C         -5.647723   1.441042   8.027154 C.ar        1 UNL1     -0.0067
     19 C         -6.012692   2.026651   6.79749 C.ar        1 UNL1     -0.0516
     20 C         -7.225015   2.713315   6.660641 C.ar        1 UNL1     -0.0198
     21 C         -8.075775   2.827433   7.745543 C.ar        1 UNL1     0.1169
     22 C         -7.759458   2.232808   8.960122 C.ar        1 UNL1     -0.0198
     23 C         -6.555665   1.530295   9.092081 C.ar        1 UNL1     -0.0516
     24 O         -9.230227   3.535872   7.585059 O.3        1 UNL1     -0.5068
     25 O         -5.78975   -2.453966   8.250952 O.2        1 UNL1     -0.2917
     26 O         -5.820603   -3.399469   5.726352 O.3        1 UNL1     -0.5058
     27 O         -0.235883   -0.203785   2.540229 O.3        1 UNL1     -0.3648
     28 O         0.257787   -1.95206   -0.577784 O.3        1 UNL1     -0.3841
     29 O         -2.45766   0.367547   -0.266948 O.3        1 UNL1     -0.3863
     30 O         -2.461887   -3.306486   -0.227304 O.3        1 UNL1     -0.3829
     31 H         0.611523   -1.855839   1.811802 H        1 UNL1     0.0937
     32 H         0.0   0.0   0.0 H        1 UNL1     0.0671
     33 H         -1.869199   -1.182434   -1.422375 H        1 UNL1     0.0649
     34 H         -3.851213   -1.820311   0.042866 H        1 UNL1     0.0683
     35 H         -3.217643   -2.936257   2.132723 H        1 UNL1     0.1085
     36 H         -4.841476   -2.959492   3.412256 H        1 UNL1     0.0691
     37 H         -2.794804   0.686666   4.483173 H        1 UNL1     0.0691
     38 H         -3.36762   -1.026162   9.01205 H        1 UNL1     0.0385
     39 H         -4.931495   -0.615182   9.742756 H        1 UNL1     0.0385
     40 H         -3.69672   1.383243   8.820274 H        1 UNL1     0.0789
     41 H         -5.358066   1.958903   5.933473 H        1 UNL1     0.0623
     42 H         -7.489703   3.170762   5.710539 H        1 UNL1     0.0654
     43 H         -8.425355   2.303177   9.811909 H        1 UNL1     0.0654
     44 H         -6.345526   1.069304   10.052379 H        1 UNL1     0.0623
     45 H         -8.999404   4.449493   7.351105 H        1 UNL1     0.2921
     46 H         -5.42191   -3.916128   6.444349 H        1 UNL1     0.2922
     47 H         0.508859   0.349121   2.265433 H        1 UNL1     0.2126
     48 H         1.193503   -1.880009   -0.307645 H        1 UNL1     0.2101
     49 H         -2.01902   0.948903   -0.908364 H        1 UNL1     0.2100
     50 H         -2.697455   -3.316345   -1.178158 H        1 UNL1     0.2102
@<TRIPOS>BOND
     1     1     2    1
     2     1     6    1
     3     2     3    1
     4     3     4    1
     5     3    29    1
     6     3    33    1
     7     4     5    1
     8     5     6    1
     9     5     7    1
    10     5    35    1
    11     7     8    1
    12     8     9   ar
    13     8    13   ar
    14     9    10   ar
    15     9    36    1
    16    10    11   ar
    17    10    26    1
    18    11    12   ar
    19    11    14    1
    20    12    13   ar
    21    12    17    1
    22    13    37    1
    23    14    15    1
    24    14    25    2
    25    15    16    1
    26    15    38    1
    27    15    39    1
    28    16    17    1
    29    16    18    1
    30    16    40    1
    31    18    19   ar
    32    18    23   ar
    33    19    20   ar
    34    19    41    1
    35    20    21   ar
    36    20    42    1
    37    21    22   ar
    38    21    24    1
    39    22    23   ar
    40    22    43    1
    41    23    44    1
    42    24    45    1
    43    26    46    1
    44    27    47    1
    45    28    48    1
    46    29    49    1
    47    30    50    1
    48     1    31    1
    49     1    27    1
    50     2    32    1
    51     2    28    1
    52     4    34    1
    53     4    30    1
