@<TRIPOS>MOLECULE
*****
 50 53 0 0 0
SMALL
GASTEIGER

@<TRIPOS>ATOM
     1 C         0.828152   1.563545   -1.28074 C.3        1 UNL1     0.1889
     2 C         -0.022838   1.094595   -0.070021 C.3        1 UNL1     0.1342
     3 C         -1.485305   1.564806   -0.093618 C.3        1 UNL1     0.1174
     4 C         -1.650799   2.958644   -0.704309 C.3        1 UNL1     0.1456
     5 C         -0.868553   3.123198   -2.020127 C.3        1 UNL1     0.2326
     6 O         0.51298   2.846181   -1.802188 O.3        1 UNL1     -0.3076
     7 O         -1.428792   2.378666   -3.116997 O.3        1 UNL1     -0.4605
     8 C         -2.29223   3.07464   -3.943812 C.ar        1 UNL1     0.1310
     9 C         -1.928206   3.74074   -5.119013 C.ar        1 UNL1     0.0226
     10 C         -2.881895   4.404938   -5.899539 C.ar        1 UNL1     0.1343
     11 C         -4.227864   4.398973   -5.535984 C.ar        1 UNL1     0.1007
     12 C         -4.597355   3.772065   -4.342985 C.ar        1 UNL1     0.1389
     13 C         -3.637834   3.106539   -3.556966 C.ar        1 UNL1     0.0229
     14 C         -5.289238   5.012913   -6.367078 C.2        1 UNL1     0.1740
     15 C         -6.698014   4.720496   -5.941178 C.3        1 UNL1     0.0520
     16 C         -6.762886   4.774802   -4.421046 C.3        1 UNL1     0.1322
     17 O         -5.87534   3.797306   -3.834672 O.3        1 UNL1     -0.4828
     18 C         -6.618759   6.186829   -3.848217 C.ar        1 UNL1     -0.0067
     19 C         -7.082565   6.455805   -2.544089 C.ar        1 UNL1     -0.0516
     20 C         -7.00921   7.746846   -2.007625 C.ar        1 UNL1     -0.0198
     21 C         -6.482132   8.776692   -2.766199 C.ar        1 UNL1     0.1169
     22 C         -5.986574   8.53627   -4.041134 C.ar        1 UNL1     -0.0198
     23 C         -6.042906   7.241581   -4.57091 C.ar        1 UNL1     -0.0516
     24 O         -6.461725   10.028341   -2.224573 O.3        1 UNL1     -0.5068
     25 O         -5.061197   5.655767   -7.38846 O.2        1 UNL1     -0.2917
     26 O         -2.461412   5.036297   -7.033631 O.3        1 UNL1     -0.5058
     27 O         0.932563   0.591427   -2.308782 O.3        1 UNL1     -0.3648
     28 O         0.573786   1.610972   1.13418 O.3        1 UNL1     -0.3841
     29 O         -2.322605   0.586267   -0.71291 O.3        1 UNL1     -0.3863
     30 O         -1.184929   3.947665   0.23935 O.3        1 UNL1     -0.3829
     31 H         1.854193   1.680773   -0.915257 H        1 UNL1     0.0937
     32 H         0.0   0.0   0.0 H        1 UNL1     0.0671
     33 H         -1.833331   1.630282   0.946723 H        1 UNL1     0.0649
     34 H         -2.711589   3.163743   -0.886131 H        1 UNL1     0.0683
     35 H         -0.947761   4.194671   -2.242726 H        1 UNL1     0.1085
     36 H         -0.907367   3.734718   -5.485036 H        1 UNL1     0.0691
     37 H         -3.950972   2.627088   -2.631998 H        1 UNL1     0.0691
     38 H         -6.9558   3.722754   -6.3121 H        1 UNL1     0.0385
     39 H         -7.372541   5.444724   -6.410525 H        1 UNL1     0.0385
     40 H         -7.768293   4.443517   -4.127913 H        1 UNL1     0.0789
     41 H         -7.508951   5.666478   -1.931873 H        1 UNL1     0.0623
     42 H         -7.381105   7.944006   -1.005212 H        1 UNL1     0.0654
     43 H         -5.557992   9.332414   -4.638112 H        1 UNL1     0.0654
     44 H         -5.636883   7.08772   -5.566057 H        1 UNL1     0.0623
     45 H         -7.377868   10.311763   -2.072682 H        1 UNL1     0.2921
     46 H         -2.304888   4.379518   -7.730447 H        1 UNL1     0.2922
     47 H         0.055445   0.373331   -2.653685 H        1 UNL1     0.2126
     48 H         1.540818   1.531161   1.023671 H        1 UNL1     0.2101
     49 H         -2.172199   0.582381   -1.671637 H        1 UNL1     0.2100
     50 H         -1.742209   4.746985   0.138159 H        1 UNL1     0.2102
@<TRIPOS>BOND
     1     1     2    1
     2     1     6    1
     3     2     3    1
     4     3     4    1
     5     3    29    1
     6     3    33    1
     7     4     5    1
     8     5     6    1
     9     5     7    1
    10     5    35    1
    11     7     8    1
    12     8     9   ar
    13     8    13   ar
    14     9    10   ar
    15     9    36    1
    16    10    11   ar
    17    10    26    1
    18    11    12   ar
    19    11    14    1
    20    12    13   ar
    21    12    17    1
    22    13    37    1
    23    14    15    1
    24    14    25    2
    25    15    16    1
    26    15    38    1
    27    15    39    1
    28    16    17    1
    29    16    18    1
    30    16    40    1
    31    18    19   ar
    32    18    23   ar
    33    19    20   ar
    34    19    41    1
    35    20    21   ar
    36    20    42    1
    37    21    22   ar
    38    21    24    1
    39    22    23   ar
    40    22    43    1
    41    23    44    1
    42    24    45    1
    43    26    46    1
    44    27    47    1
    45    28    48    1
    46    29    49    1
    47    30    50    1
    48     1    31    1
    49     1    27    1
    50     2    32    1
    51     2    28    1
    52     4    34    1
    53     4    30    1
