@<TRIPOS>MOLECULE
*****
 50 53 0 0 0
SMALL
GASTEIGER

@<TRIPOS>ATOM
     1 C         -0.344953   -1.357815   1.675754 C.3        1 UNL1     0.1889
     2 C         -0.467878   -0.976577   0.175925 C.3        1 UNL1     0.1342
     3 C         -1.906553   -0.947216   -0.362421 C.3        1 UNL1     0.1174
     4 C         -2.800476   -2.014133   0.27453 C.3        1 UNL1     0.1456
     5 C         -2.654937   -2.068416   1.806273 C.3        1 UNL1     0.2326
     6 O         -1.292471   -2.29953   2.157187 O.3        1 UNL1     -0.3076
     7 O         -3.226892   -0.930789   2.477089 O.3        1 UNL1     -0.4605
     8 C         -3.75297   -1.169507   3.733983 C.ar        1 UNL1     0.1310
     9 C         -4.814719   -2.035486   4.016952 C.ar        1 UNL1     0.0226
     10 C         -5.265542   -2.223262   5.328974 C.ar        1 UNL1     0.1343
     11 C         -4.649363   -1.567081   6.393676 C.ar        1 UNL1     0.1007
     12 C         -3.614954   -0.668499   6.119206 C.ar        1 UNL1     0.1389
     13 C         -3.163575   -0.477857   4.799606 C.ar        1 UNL1     0.0229
     14 C         -5.029964   -1.792433   7.807364 C.2        1 UNL1     0.1740
     15 C         -4.11993   -1.178775   8.830502 C.3        1 UNL1     0.0520
     16 C         -3.705953   0.202044   8.340685 C.3        1 UNL1     0.1322
     17 O         -3.01018   0.110889   7.077887 O.3        1 UNL1     -0.4828
     18 C         -4.838968   1.230762   8.367883 C.ar        1 UNL1     -0.0067
     19 C         -4.549176   2.587065   8.113569 C.ar        1 UNL1     -0.0516
     20 C         -5.553475   3.560356   8.177213 C.ar        1 UNL1     -0.0198
     21 C         -6.847133   3.192006   8.500621 C.ar        1 UNL1     0.1169
     22 C         -7.170195   1.85979   8.72349 C.ar        1 UNL1     -0.0198
     23 C         -6.169758   0.883825   8.641797 C.ar        1 UNL1     -0.0516
     24 O         -7.791017   4.172534   8.590332 O.3        1 UNL1     -0.5068
     25 O         -5.975827   -2.497625   8.148732 O.2        1 UNL1     -0.2917
     26 O         -6.306103   -3.080815   5.537346 O.3        1 UNL1     -0.5058
     27 O         -0.237447   -0.235788   2.537313 O.3        1 UNL1     -0.3648
     28 O         0.260902   -1.944343   -0.601902 O.3        1 UNL1     -0.3841
     29 O         -2.457971   0.367477   -0.264169 O.3        1 UNL1     -0.3863
     30 O         -2.457153   -3.306767   -0.27037 O.3        1 UNL1     -0.3829
     31 H         0.612769   -1.87746   1.788961 H        1 UNL1     0.0937
     32 H         0.0   0.0   0.0 H        1 UNL1     0.0671
     33 H         -1.866531   -1.167158   -1.438406 H        1 UNL1     0.0649
     34 H         -3.848726   -1.825985   0.017287 H        1 UNL1     0.0683
     35 H         -3.215133   -2.96705   2.09353 H        1 UNL1     0.1085
     36 H         -5.298746   -2.617105   3.240062 H        1 UNL1     0.0691
     37 H         -2.357359   0.228137   4.612302 H        1 UNL1     0.0691
     38 H         -3.250939   -1.836688   8.937882 H        1 UNL1     0.0385
     39 H         -4.639098   -1.137828   9.794124 H        1 UNL1     0.0385
     40 H         -2.951625   0.581924   9.042968 H        1 UNL1     0.0789
     41 H         -3.539806   2.903031   7.866611 H        1 UNL1     0.0623
     42 H         -5.315062   4.604573   7.990712 H        1 UNL1     0.0654
     43 H         -8.183029   1.558363   8.962697 H        1 UNL1     0.0654
     44 H         -6.459845   -0.148601   8.811477 H        1 UNL1     0.0623
     45 H         -7.339291   5.02212   8.720198 H        1 UNL1     0.2921
     46 H         -6.155708   -3.57906   6.356215 H        1 UNL1     0.2922
     47 H         -0.309654   -0.51465   3.460829 H        1 UNL1     0.2126
     48 H         0.977872   -1.458127   -1.052769 H        1 UNL1     0.2101
     49 H         -3.009151   0.435535   0.531671 H        1 UNL1     0.2100
     50 H         -1.50651   -3.291592   -0.506508 H        1 UNL1     0.2102
@<TRIPOS>BOND
     1     1     2    1
     2     1     6    1
     3     2     3    1
     4     3     4    1
     5     3    29    1
     6     3    33    1
     7     4     5    1
     8     5     6    1
     9     5     7    1
    10     5    35    1
    11     7     8    1
    12     8     9   ar
    13     8    13   ar
    14     9    10   ar
    15     9    36    1
    16    10    11   ar
    17    10    26    1
    18    11    12   ar
    19    11    14    1
    20    12    13   ar
    21    12    17    1
    22    13    37    1
    23    14    15    1
    24    14    25    2
    25    15    16    1
    26    15    38    1
    27    15    39    1
    28    16    17    1
    29    16    18    1
    30    16    40    1
    31    18    19   ar
    32    18    23   ar
    33    19    20   ar
    34    19    41    1
    35    20    21   ar
    36    20    42    1
    37    21    22   ar
    38    21    24    1
    39    22    23   ar
    40    22    43    1
    41    23    44    1
    42    24    45    1
    43    26    46    1
    44    27    47    1
    45    28    48    1
    46    29    49    1
    47    30    50    1
    48     1    31    1
    49     1    27    1
    50     2    32    1
    51     2    28    1
    52     4    34    1
    53     4    30    1
