@<TRIPOS>MOLECULE
*****
 50 53 0 0 0
SMALL
GASTEIGER

@<TRIPOS>ATOM
     1 C         0.779881   0.777521   -1.88628 C.3        1 UNL1     0.1889
     2 C         -0.354626   0.610164   -0.839941 C.3        1 UNL1     0.1342
     3 C         -1.650946   -0.002342   -1.392079 C.3        1 UNL1     0.1174
     4 C         -1.939949   0.420842   -2.834476 C.3        1 UNL1     0.1456
     5 C         -0.701371   0.308318   -3.742015 C.3        1 UNL1     0.2326
     6 O         0.365088   1.089578   -3.208006 O.3        1 UNL1     -0.3076
     7 O         -0.320432   -1.050171   -4.026119 O.3        1 UNL1     -0.4605
     8 C         -1.127412   -2.032667   -3.48113 C.ar        1 UNL1     0.1310
     9 C         -2.430189   -2.332405   -3.893721 C.ar        1 UNL1     0.0226
     10 C         -3.162519   -3.360629   -3.288452 C.ar        1 UNL1     0.1343
     11 C         -2.600547   -4.130485   -2.27093 C.ar        1 UNL1     0.1007
     12 C         -1.315459   -3.813913   -1.822473 C.ar        1 UNL1     0.1389
     13 C         -0.580293   -2.778271   -2.429439 C.ar        1 UNL1     0.0229
     14 C         -3.297942   -5.282487   -1.653934 C.2        1 UNL1     0.1740
     15 C         -2.465284   -6.131093   -0.738458 C.3        1 UNL1     0.0520
     16 C         -1.577687   -5.215173   0.092939 C.3        1 UNL1     0.1322
     17 O         -0.707416   -4.43521   -0.756387 O.3        1 UNL1     -0.4828
     18 C         -2.341982   -4.399114   1.138227 C.ar        1 UNL1     -0.0067
     19 C         -2.705703   -3.068215   0.847316 C.ar        1 UNL1     -0.0516
     20 C         -3.363304   -2.278999   1.798453 C.ar        1 UNL1     -0.0198
     21 C         -3.655573   -2.805498   3.043926 C.ar        1 UNL1     0.1169
     22 C         -3.340044   -4.123307   3.348329 C.ar        1 UNL1     -0.0198
     23 C         -2.698942   -4.918524   2.390899 C.ar        1 UNL1     -0.0516
     24 O         -4.262788   -1.995129   3.957705 O.3        1 UNL1     -0.5068
     25 O         -4.456472   -5.592431   -1.91894 O.2        1 UNL1     -0.2917
     26 O         -4.428478   -3.601543   -3.736661 O.3        1 UNL1     -0.5058
     27 O         1.724647   -0.28075   -1.869948 O.3        1 UNL1     -0.3648
     28 O         -0.684771   1.908834   -0.313475 O.3        1 UNL1     -0.3841
     29 O         -1.654794   -1.420994   -1.220196 O.3        1 UNL1     -0.3863
     30 O         -2.399052   1.790087   -2.843509 O.3        1 UNL1     -0.3829
     31 H         1.356602   1.658544   -1.584168 H        1 UNL1     0.0937
     32 H         0.0   0.0   0.0 H        1 UNL1     0.0671
     33 H         -2.484489   0.368084   -0.779126 H        1 UNL1     0.0649
     34 H         -2.748735   -0.191161   -3.248865 H        1 UNL1     0.0683
     35 H         -1.013484   0.791077   -4.676578 H        1 UNL1     0.1085
     36 H         -2.902603   -1.807586   -4.716831 H        1 UNL1     0.0691
     37 H         0.417777   -2.550901   -2.061128 H        1 UNL1     0.0691
     38 H         -1.865616   -6.801924   -1.362885 H        1 UNL1     0.0385
     39 H         -3.126749   -6.743322   -0.116029 H        1 UNL1     0.0385
     40 H         -0.896879   -5.858068   0.66714 H        1 UNL1     0.0789
     41 H         -2.479343   -2.628777   -0.119796 H        1 UNL1     0.0623
     42 H         -3.62791   -1.250358   1.566304 H        1 UNL1     0.0654
     43 H         -3.577793   -4.550345   4.315296 H        1 UNL1     0.0654
     44 H         -2.476736   -5.946911   2.659024 H        1 UNL1     0.0623
     45 H         -3.628288   -1.803556   4.66723 H        1 UNL1     0.2921
     46 H         -4.616473   -3.029882   -4.497762 H        1 UNL1     0.2922
     47 H         2.357813   -0.175519   -2.593748 H        1 UNL1     0.2126
     48 H         -0.516619   2.551748   -1.0291 H        1 UNL1     0.2101
     49 H         -2.537957   -1.718179   -0.949092 H        1 UNL1     0.2100
     50 H         -1.984231   2.242147   -3.607236 H        1 UNL1     0.2102
@<TRIPOS>BOND
     1     1     2    1
     2     1     6    1
     3     2     3    1
     4     3     4    1
     5     3    29    1
     6     3    33    1
     7     4     5    1
     8     5     6    1
     9     5     7    1
    10     5    35    1
    11     7     8    1
    12     8     9   ar
    13     8    13   ar
    14     9    10   ar
    15     9    36    1
    16    10    11   ar
    17    10    26    1
    18    11    12   ar
    19    11    14    1
    20    12    13   ar
    21    12    17    1
    22    13    37    1
    23    14    15    1
    24    14    25    2
    25    15    16    1
    26    15    38    1
    27    15    39    1
    28    16    17    1
    29    16    18    1
    30    16    40    1
    31    18    19   ar
    32    18    23   ar
    33    19    20   ar
    34    19    41    1
    35    20    21   ar
    36    20    42    1
    37    21    22   ar
    38    21    24    1
    39    22    23   ar
    40    22    43    1
    41    23    44    1
    42    24    45    1
    43    26    46    1
    44    27    47    1
    45    28    48    1
    46    29    49    1
    47    30    50    1
    48     1    31    1
    49     1    27    1
    50     2    32    1
    51     2    28    1
    52     4    34    1
    53     4    30    1
