@<TRIPOS>MOLECULE
*****
 50 53 0 0 0
SMALL
GASTEIGER

@<TRIPOS>ATOM
     1 C         -0.364764   -1.365592   1.665206 C.3        1 UNL1     0.1889
     2 C         -0.446496   -0.989017   0.161393 C.3        1 UNL1     0.1342
     3 C         -1.866058   -0.999875   -0.426137 C.3        1 UNL1     0.1174
     4 C         -2.75155   -2.090643   0.181519 C.3        1 UNL1     0.1456
     5 C         -2.657357   -2.139739   1.717449 C.3        1 UNL1     0.2326
     6 O         -1.301907   -2.332805   2.11538 O.3        1 UNL1     -0.3076
     7 O         -3.283265   -1.017874   2.366278 O.3        1 UNL1     -0.4605
     8 C         -3.835539   -1.267466   3.609751 C.ar        1 UNL1     0.1310
     9 C         -4.640129   -2.36524   3.933521 C.ar        1 UNL1     0.0226
     10 C         -5.139338   -2.539387   5.229811 C.ar        1 UNL1     0.1343
     11 C         -4.826123   -1.631678   6.240653 C.ar        1 UNL1     0.1007
     12 C         -4.057422   -0.509683   5.919703 C.ar        1 UNL1     0.1389
     13 C         -3.557779   -0.33341   4.615588 C.ar        1 UNL1     0.0229
     14 C         -5.257029   -1.811533   7.6464 C.2        1 UNL1     0.1740
     15 C         -4.647056   -0.865452   8.638576 C.3        1 UNL1     0.0520
     16 C         -4.585055   0.519249   8.008722 C.3        1 UNL1     0.1322
     17 O         -3.779298   0.501611   6.809758 O.3        1 UNL1     -0.4828
     18 C         -5.954408   1.182687   7.843054 C.ar        1 UNL1     -0.0067
     19 C         -6.298316   1.761177   6.603986 C.ar        1 UNL1     -0.0516
     20 C         -7.523157   2.417247   6.432815 C.ar        1 UNL1     -0.0198
     21 C         -8.407596   2.507812   7.492718 C.ar        1 UNL1     0.1169
     22 C         -8.111639   1.919108   8.715287 C.ar        1 UNL1     -0.0198
     23 C         -6.894778   1.246989   8.881304 C.ar        1 UNL1     -0.0516
     24 O         -9.574475   3.187156   7.299624 O.3        1 UNL1     -0.5068
     25 O         -6.000087   -2.717266   8.015181 O.2        1 UNL1     -0.2917
     26 O         -5.919183   -3.630664   5.479893 O.3        1 UNL1     -0.5058
     27 O         -0.318005   -0.240379   2.528047 O.3        1 UNL1     -0.3648
     28 O         0.335074   -1.936827   -0.58928 O.3        1 UNL1     -0.3841
     29 O         -2.456639   0.299131   -0.349126 O.3        1 UNL1     -0.3863
     30 O         -2.354101   -3.373688   -0.349066 O.3        1 UNL1     -0.3829
     31 H         0.602486   -1.858455   1.812148 H        1 UNL1     0.0937
     32 H         0.0   0.0   0.0 H        1 UNL1     0.0671
     33 H         -1.782975   -1.219426   -1.499735 H        1 UNL1     0.0649
     34 H         -3.795126   -1.931763   -0.111924 H        1 UNL1     0.0683
     35 H         -3.202065   -3.053315   1.986802 H        1 UNL1     0.1085
     36 H         -4.873417   -3.135381   3.206486 H        1 UNL1     0.0691
     37 H         -2.962619   0.549139   4.391121 H        1 UNL1     0.0691
     38 H         -3.644403   -1.236308   8.87665 H        1 UNL1     0.0385
     39 H         -5.242804   -0.875955   9.55768 H        1 UNL1     0.0385
     40 H         -4.030882   1.1659   8.702448 H        1 UNL1     0.0789
     41 H         -5.617437   1.711599   5.759239 H        1 UNL1     0.0623
     42 H         -7.771711   2.869629   5.475954 H        1 UNL1     0.0654
     43 H         -8.803492   1.971044   9.547484 H        1 UNL1     0.0654
     44 H         -6.700939   0.789665   9.846771 H        1 UNL1     0.0623
     45 H         -9.360118   4.106061   7.070754 H        1 UNL1     0.2921
     46 H         -5.53169   -4.145885   6.205019 H        1 UNL1     0.2922
     47 H         0.420082   0.336411   2.286387 H        1 UNL1     0.2126
     48 H         1.257838   -1.842795   -0.28367 H        1 UNL1     0.2101
     49 H         -2.007798   0.902598   -0.962448 H        1 UNL1     0.2100
     50 H         -2.550839   -3.377143   -1.30875 H        1 UNL1     0.2102
@<TRIPOS>BOND
     1     1     2    1
     2     1     6    1
     3     2     3    1
     4     3     4    1
     5     3    29    1
     6     3    33    1
     7     4     5    1
     8     5     6    1
     9     5     7    1
    10     5    35    1
    11     7     8    1
    12     8     9   ar
    13     8    13   ar
    14     9    10   ar
    15     9    36    1
    16    10    11   ar
    17    10    26    1
    18    11    12   ar
    19    11    14    1
    20    12    13   ar
    21    12    17    1
    22    13    37    1
    23    14    15    1
    24    14    25    2
    25    15    16    1
    26    15    38    1
    27    15    39    1
    28    16    17    1
    29    16    18    1
    30    16    40    1
    31    18    19   ar
    32    18    23   ar
    33    19    20   ar
    34    19    41    1
    35    20    21   ar
    36    20    42    1
    37    21    22   ar
    38    21    24    1
    39    22    23   ar
    40    22    43    1
    41    23    44    1
    42    24    45    1
    43    26    46    1
    44    27    47    1
    45    28    48    1
    46    29    49    1
    47    30    50    1
    48     1    31    1
    49     1    27    1
    50     2    32    1
    51     2    28    1
    52     4    34    1
    53     4    30    1
