@<TRIPOS>MOLECULE
*****
 50 53 0 0 0
SMALL
GASTEIGER

@<TRIPOS>ATOM
     1 C         -0.543787   0.278157   -2.097076 C.3        1 UNL1     0.1889
     2 C         -0.88141   0.296668   -0.58195 C.3        1 UNL1     0.1342
     3 C         -2.06966   -0.589934   -0.178881 C.3        1 UNL1     0.1174
     4 C         -3.163579   -0.638572   -1.248504 C.3        1 UNL1     0.1456
     5 C         -2.597702   -0.871231   -2.661308 C.3        1 UNL1     0.2326
     6 O         -1.649174   0.144939   -2.978421 O.3        1 UNL1     -0.3076
     7 O         -2.08954   -2.202522   -2.863196 O.3        1 UNL1     -0.4605
     8 C         -1.105401   -2.336205   -3.82607 C.ar        1 UNL1     0.1310
     9 C         -0.266506   -3.445358   -3.978826 C.ar        1 UNL1     0.0226
     10 C         0.691105   -3.493479   -4.998909 C.ar        1 UNL1     0.1343
     11 C         0.817036   -2.442695   -5.906562 C.ar        1 UNL1     0.1007
     12 C         0.012927   -1.312131   -5.739172 C.ar        1 UNL1     0.1389
     13 C         -0.94806   -1.262865   -4.711793 C.ar        1 UNL1     0.0229
     14 C         1.753937   -2.477079   -7.053379 C.2        1 UNL1     0.1740
     15 C         1.600118   -1.366796   -8.050956 C.3        1 UNL1     0.0520
     16 C         1.334409   -0.07264   -7.294308 C.3        1 UNL1     0.1322
     17 O         0.127069   -0.177076   -6.507865 O.3        1 UNL1     -0.4828
     18 C         2.54922   0.451862   -6.524985 C.ar        1 UNL1     -0.0067
     19 C         3.592883   1.087488   -7.228519 C.ar        1 UNL1     -0.0516
     20 C         4.739281   1.536365   -6.562002 C.ar        1 UNL1     -0.0198
     21 C         4.857029   1.349395   -5.19635 C.ar        1 UNL1     0.1169
     22 C         3.831569   0.756946   -4.470903 C.ar        1 UNL1     -0.0198
     23 C         2.677039   0.32457   -5.134355 C.ar        1 UNL1     -0.0516
     24 O         6.004352   1.765598   -4.587396 O.3        1 UNL1     -0.5068
     25 O         2.558452   -3.385703   -7.242169 O.2        1 UNL1     -0.2917
     26 O         1.478825   -4.603554   -5.092803 O.3        1 UNL1     -0.5058
     27 O         0.503974   -0.617874   -2.431908 O.3        1 UNL1     -0.3648
     28 O         -1.206813   1.647109   -0.203624 O.3        1 UNL1     -0.3841
     29 O         -1.622523   -1.88883   0.214909 O.3        1 UNL1     -0.3863
     30 O         -3.890756   0.609155   -1.239498 O.3        1 UNL1     -0.3829
     31 H         -0.140525   1.267366   -2.339821 H        1 UNL1     0.0937
     32 H         0.0   0.0   0.0 H        1 UNL1     0.0671
     33 H         -2.524296   -0.152623   0.721 H        1 UNL1     0.0649
     34 H         -3.882861   -1.43049   -1.012076 H        1 UNL1     0.0683
     35 H         -3.461302   -0.718395   -3.320638 H        1 UNL1     0.1085
     36 H         -0.352688   -4.317719   -3.340328 H        1 UNL1     0.0691
     37 H         -1.560976   -0.370794   -4.602082 H        1 UNL1     0.0691
     38 H         0.758773   -1.622426   -8.703887 H        1 UNL1     0.0385
     39 H         2.504818   -1.308721   -8.665711 H        1 UNL1     0.0385
     40 H         1.108805   0.699282   -8.042478 H        1 UNL1     0.0789
     41 H         3.528525   1.237938   -8.302239 H        1 UNL1     0.0623
     42 H         5.542396   2.014354   -7.117469 H        1 UNL1     0.0654
     43 H         3.906902   0.619152   -3.398873 H        1 UNL1     0.0654
     44 H         1.891231   -0.124529   -4.534638 H        1 UNL1     0.0623
     45 H         5.853857   2.653086   -4.22348 H        1 UNL1     0.2921
     46 H         2.037217   -4.538063   -5.883575 H        1 UNL1     0.2922
     47 H         1.348879   -0.284404   -2.099053 H        1 UNL1     0.2126
     48 H         -1.501071   1.613669   0.726981 H        1 UNL1     0.2101
     49 H         -1.379311   -2.405975   -0.56944 H        1 UNL1     0.2100
     50 H         -4.367685   0.674023   -0.386244 H        1 UNL1     0.2102
@<TRIPOS>BOND
     1     1     2    1
     2     1     6    1
     3     2     3    1
     4     3     4    1
     5     3    29    1
     6     3    33    1
     7     4     5    1
     8     5     6    1
     9     5     7    1
    10     5    35    1
    11     7     8    1
    12     8     9   ar
    13     8    13   ar
    14     9    10   ar
    15     9    36    1
    16    10    11   ar
    17    10    26    1
    18    11    12   ar
    19    11    14    1
    20    12    13   ar
    21    12    17    1
    22    13    37    1
    23    14    15    1
    24    14    25    2
    25    15    16    1
    26    15    38    1
    27    15    39    1
    28    16    17    1
    29    16    18    1
    30    16    40    1
    31    18    19   ar
    32    18    23   ar
    33    19    20   ar
    34    19    41    1
    35    20    21   ar
    36    20    42    1
    37    21    22   ar
    38    21    24    1
    39    22    23   ar
    40    22    43    1
    41    23    44    1
    42    24    45    1
    43    26    46    1
    44    27    47    1
    45    28    48    1
    46    29    49    1
    47    30    50    1
    48     1    31    1
    49     1    27    1
    50     2    32    1
    51     2    28    1
    52     4    34    1
    53     4    30    1
