@<TRIPOS>MOLECULE
*****
 50 53 0 0 0
SMALL
GASTEIGER

@<TRIPOS>ATOM
     1 C         -0.349785   -1.364652   1.669186 C.3        1 UNL1     0.1889
     2 C         -0.476147   -0.973226   0.172269 C.3        1 UNL1     0.1342
     3 C         -1.916983   -0.927224   -0.359087 C.3        1 UNL1     0.1174
     4 C         -2.817843   -1.989607   0.275667 C.3        1 UNL1     0.1456
     5 C         -2.665667   -2.054501   1.806351 C.3        1 UNL1     0.2326
     6 O         -1.303793   -2.300402   2.14943 O.3        1 UNL1     -0.3076
     7 O         -3.223839   -0.915677   2.486678 O.3        1 UNL1     -0.4605
     8 C         -3.746248   -1.157083   3.744589 C.ar        1 UNL1     0.1310
     9 C         -4.584807   -2.224741   4.082562 C.ar        1 UNL1     0.0226
     10 C         -5.049434   -2.393564   5.392341 C.ar        1 UNL1     0.1343
     11 C         -4.667122   -1.511405   6.402031 C.ar        1 UNL1     0.1007
     12 C         -3.863314   -0.418112   6.068284 C.ar        1 UNL1     0.1389
     13 C         -3.398414   -0.24709   4.750692 C.ar        1 UNL1     0.0229
     14 C         -5.060305   -1.690016   7.81895 C.2        1 UNL1     0.1740
     15 C         -4.380644   -0.781446   8.800841 C.3        1 UNL1     0.0520
     16 C         -4.281525   0.606879   8.183844 C.3        1 UNL1     0.1322
     17 O         -3.515598   0.570397   6.959469 O.3        1 UNL1     -0.4828
     18 C         -5.626883   1.327715   8.069251 C.ar        1 UNL1     -0.0067
     19 C         -5.97924   1.947172   6.852562 C.ar        1 UNL1     -0.0516
     20 C         -7.180691   2.655035   6.728435 C.ar        1 UNL1     -0.0198
     21 C         -8.032971   2.756734   7.813379 C.ar        1 UNL1     0.1169
     22 C         -7.72935   2.129349   9.014645 C.ar        1 UNL1     -0.0198
     23 C         -6.53665   1.405885   9.133492 C.ar        1 UNL1     -0.0516
     24 O         -9.176158   3.48604   7.666287 O.3        1 UNL1     -0.5068
     25 O         -5.828059   -2.568856   8.201938 O.2        1 UNL1     -0.2917
     26 O         -5.865349   -3.454877   5.65594 O.3        1 UNL1     -0.5058
     27 O         -0.227789   -0.248902   2.536946 O.3        1 UNL1     -0.3648
     28 O         0.239928   -1.943013   -0.614786 O.3        1 UNL1     -0.3841
     29 O         -2.45564   0.391926   -0.250342 O.3        1 UNL1     -0.3863
     30 O         -2.489148   -3.282062   -0.278597 O.3        1 UNL1     -0.3829
     31 H         0.603563   -1.893862   1.774746 H        1 UNL1     0.0937
     32 H         0.0   0.0   0.0 H        1 UNL1     0.0671
     33 H         -1.88404   -1.14102   -1.436549 H        1 UNL1     0.0649
     34 H         -3.86548   -1.790161   0.024514 H        1 UNL1     0.0683
     35 H         -3.232879   -2.949603   2.090853 H        1 UNL1     0.1085
     36 H         -4.872623   -2.976072   3.355385 H        1 UNL1     0.0691
     37 H         -2.77474   0.612941   4.516449 H        1 UNL1     0.0691
     38 H         -3.387115   -1.19581   9.002654 H        1 UNL1     0.0385
     39 H         -4.946881   -0.77838   9.738469 H        1 UNL1     0.0385
     40 H         -3.679413   1.222089   8.866117 H        1 UNL1     0.0789
     41 H         -5.323054   1.889651   5.988987 H        1 UNL1     0.0623
     42 H         -7.435562   3.138372   5.788521 H        1 UNL1     0.0654
     43 H         -8.396728   2.189943   9.866023 H        1 UNL1     0.0654
     44 H         -6.336407   0.919591   10.083368 H        1 UNL1     0.0623
     45 H         -8.930718   4.406048   7.476387 H        1 UNL1     0.2921
     46 H         -5.476665   -3.994031   6.362798 H        1 UNL1     0.2922
     47 H         0.510095   0.311863   2.259584 H        1 UNL1     0.2126
     48 H         1.180604   -1.867639   -0.363429 H        1 UNL1     0.2101
     49 H         -2.014814   0.981557   -0.882641 H        1 UNL1     0.2100
     50 H         -2.728423   -3.272444   -1.228528 H        1 UNL1     0.2102
@<TRIPOS>BOND
     1     1     2    1
     2     1     6    1
     3     2     3    1
     4     3     4    1
     5     3    29    1
     6     3    33    1
     7     4     5    1
     8     5     6    1
     9     5     7    1
    10     5    35    1
    11     7     8    1
    12     8     9   ar
    13     8    13   ar
    14     9    10   ar
    15     9    36    1
    16    10    11   ar
    17    10    26    1
    18    11    12   ar
    19    11    14    1
    20    12    13   ar
    21    12    17    1
    22    13    37    1
    23    14    15    1
    24    14    25    2
    25    15    16    1
    26    15    38    1
    27    15    39    1
    28    16    17    1
    29    16    18    1
    30    16    40    1
    31    18    19   ar
    32    18    23   ar
    33    19    20   ar
    34    19    41    1
    35    20    21   ar
    36    20    42    1
    37    21    22   ar
    38    21    24    1
    39    22    23   ar
    40    22    43    1
    41    23    44    1
    42    24    45    1
    43    26    46    1
    44    27    47    1
    45    28    48    1
    46    29    49    1
    47    30    50    1
    48     1    31    1
    49     1    27    1
    50     2    32    1
    51     2    28    1
    52     4    34    1
    53     4    30    1
