@<TRIPOS>MOLECULE
*****
 50 53 0 0 0
SMALL
GASTEIGER

@<TRIPOS>ATOM
     1 C         -0.330935   -1.356359   1.679755 C.3        1 UNL1     0.1889
     2 C         -0.466321   -0.976457   0.18066 C.3        1 UNL1     0.1342
     3 C         -1.909413   -0.947682   -0.345767 C.3        1 UNL1     0.1174
     4 C         -2.797935   -2.014104   0.299515 C.3        1 UNL1     0.1456
     5 C         -2.639699   -2.067022   1.830046 C.3        1 UNL1     0.2326
     6 O         -1.274351   -2.297721   2.169857 O.3        1 UNL1     -0.3076
     7 O         -3.206168   -0.928847   2.504576 O.3        1 UNL1     -0.4605
     8 C         -3.721789   -1.166494   3.765998 C.ar        1 UNL1     0.1310
     9 C         -4.549022   -2.239648   4.114318 C.ar        1 UNL1     0.0226
     10 C         -5.007364   -2.403816   5.426901 C.ar        1 UNL1     0.1343
     11 C         -4.6298   -1.511165   6.429129 C.ar        1 UNL1     0.1007
     12 C         -3.837544   -0.412676   6.084985 C.ar        1 UNL1     0.1389
     13 C         -3.378977   -0.24636   4.764574 C.ar        1 UNL1     0.0229
     14 C         -5.016227   -1.68371   7.848656 C.2        1 UNL1     0.1740
     15 C         -4.341678   -0.762042   8.821827 C.3        1 UNL1     0.0520
     16 C         -4.257869   0.622874   8.194976 C.3        1 UNL1     0.1322
     17 O         -3.496   0.585176   6.968109 O.3        1 UNL1     -0.4828
     18 C         -5.610372   1.330205   8.08033 C.ar        1 UNL1     -0.0067
     19 C         -5.972895   1.937925   6.860712 C.ar        1 UNL1     -0.0516
     20 C         -7.181409   2.633573   6.736099 C.ar        1 UNL1     -0.0198
     21 C         -8.030739   2.73471   7.823406 C.ar        1 UNL1     0.1169
     22 C         -7.716929   2.118498   9.027833 C.ar        1 UNL1     -0.0198
     23 C         -6.517037   1.407132   9.147305 C.ar        1 UNL1     -0.0516
     24 O         -9.181277   3.452191   7.67547 O.3        1 UNL1     -0.5068
     25 O         -5.77428   -2.567081   8.24044 O.2        1 UNL1     -0.2917
     26 O         -5.812278   -3.470923   5.700724 O.3        1 UNL1     -0.5058
     27 O         -0.216386   -0.233563   2.539401 O.3        1 UNL1     -0.3648
     28 O         0.256067   -1.944855   -0.602326 O.3        1 UNL1     -0.3841
     29 O         -2.460107   0.367055   -0.244109 O.3        1 UNL1     -0.3863
     30 O         -2.459032   -3.307193   -0.24707 O.3        1 UNL1     -0.3829
     31 H         0.627736   -1.875831   1.785478 H        1 UNL1     0.0937
     32 H         0.0   0.0   0.0 H        1 UNL1     0.0671
     33 H         -1.878292   -1.168573   -1.421852 H        1 UNL1     0.0649
     34 H         -3.848297   -1.826265   0.050805 H        1 UNL1     0.0683
     35 H         -3.197418   -2.965445   2.122731 H        1 UNL1     0.1085
     36 H         -4.832322   -2.998644   3.393356 H        1 UNL1     0.0691
     37 H         -2.764288   0.617871   4.522182 H        1 UNL1     0.0691
     38 H         -3.343568   -1.165633   9.022867 H        1 UNL1     0.0385
     39 H         -4.904573   -0.757851   9.76146 H        1 UNL1     0.0385
     40 H         -3.659164   1.248409   8.87083 H        1 UNL1     0.0789
     41 H         -5.319277   1.88064   5.995176 H        1 UNL1     0.0623
     42 H         -7.44418   3.108005   5.793826 H        1 UNL1     0.0654
     43 H         -8.381811   2.178666   9.881192 H        1 UNL1     0.0654
     44 H         -6.308828   0.929296   10.099758 H        1 UNL1     0.0623
     45 H         -8.945211   4.373139   7.478382 H        1 UNL1     0.2921
     46 H         -5.416005   -4.001515   6.409845 H        1 UNL1     0.2922
     47 H         0.515178   0.332203   2.255528 H        1 UNL1     0.2126
     48 H         1.196879   -1.858899   -0.354906 H        1 UNL1     0.2101
     49 H         -2.027123   0.956442   -0.882028 H        1 UNL1     0.2100
     50 H         -2.701771   -3.306369   -1.196169 H        1 UNL1     0.2102
@<TRIPOS>BOND
     1     1     2    1
     2     1     6    1
     3     2     3    1
     4     3     4    1
     5     3    29    1
     6     3    33    1
     7     4     5    1
     8     5     6    1
     9     5     7    1
    10     5    35    1
    11     7     8    1
    12     8     9   ar
    13     8    13   ar
    14     9    10   ar
    15     9    36    1
    16    10    11   ar
    17    10    26    1
    18    11    12   ar
    19    11    14    1
    20    12    13   ar
    21    12    17    1
    22    13    37    1
    23    14    15    1
    24    14    25    2
    25    15    16    1
    26    15    38    1
    27    15    39    1
    28    16    17    1
    29    16    18    1
    30    16    40    1
    31    18    19   ar
    32    18    23   ar
    33    19    20   ar
    34    19    41    1
    35    20    21   ar
    36    20    42    1
    37    21    22   ar
    38    21    24    1
    39    22    23   ar
    40    22    43    1
    41    23    44    1
    42    24    45    1
    43    26    46    1
    44    27    47    1
    45    28    48    1
    46    29    49    1
    47    30    50    1
    48     1    31    1
    49     1    27    1
    50     2    32    1
    51     2    28    1
    52     4    34    1
    53     4    30    1
