@<TRIPOS>MOLECULE
*****
 50 53 0 0 0
SMALL
GASTEIGER

@<TRIPOS>ATOM
     1 C         -0.671653   -0.739841   -1.942247 C.3        1 UNL1     0.1889
     2 C         -0.846917   0.148594   -0.681332 C.3        1 UNL1     0.1342
     3 C         -2.15612   -0.082265   0.088836 C.3        1 UNL1     0.1174
     4 C         -3.333147   -0.420601   -0.829453 C.3        1 UNL1     0.1456
     5 C         -2.973578   -1.485174   -1.881954 C.3        1 UNL1     0.2326
     6 O         -1.860031   -1.046129   -2.656628 O.3        1 UNL1     -0.3076
     7 O         -2.793754   -2.801223   -1.327877 O.3        1 UNL1     -0.4605
     8 C         -3.929074   -3.404216   -0.81702 C.ar        1 UNL1     0.1310
     9 C         -4.43442   -4.647234   -1.213043 C.ar        1 UNL1     0.0226
     10 C         -5.585042   -5.182397   -0.621797 C.ar        1 UNL1     0.1343
     11 C         -6.245311   -4.497623   0.397502 C.ar        1 UNL1     0.1007
     12 C         -5.773837   -3.236872   0.773008 C.ar        1 UNL1     0.1389
     13 C         -4.618401   -2.697799   0.17652 C.ar        1 UNL1     0.0229
     14 C         -7.415934   -5.054075   1.114548 C.2        1 UNL1     0.1740
     15 C         -7.860521   -4.287107   2.325189 C.3        1 UNL1     0.0520
     16 C         -7.765809   -2.799618   2.014764 C.3        1 UNL1     0.1322
     17 O         -6.40808   -2.429336   1.688371 O.3        1 UNL1     -0.4828
     18 C         -8.814828   -2.311243   1.01288 C.ar        1 UNL1     -0.0067
     19 C         -8.695681   -1.019738   0.459677 C.ar        1 UNL1     -0.0516
     20 C         -9.662916   -0.524313   -0.422917 C.ar        1 UNL1     -0.0198
     21 C         -10.755317   -1.306017   -0.753712 C.ar        1 UNL1     0.1169
     22 C         -10.883184   -2.594497   -0.251408 C.ar        1 UNL1     -0.0198
     23 C         -9.906575   -3.097092   0.616746 C.ar        1 UNL1     -0.0516
     24 O         -11.696335   -0.775676   -1.586553 O.3        1 UNL1     -0.5068
     25 O         -7.955449   -6.11398   0.807937 O.2        1 UNL1     -0.2917
     26 O         -6.026717   -6.398772   -1.054163 O.3        1 UNL1     -0.5058
     27 O         0.114798   -1.898139   -1.71284 O.3        1 UNL1     -0.3648
     28 O         -0.827887   1.529002   -1.089762 O.3        1 UNL1     -0.3841
     29 O         -1.970069   -1.04559   1.127837 O.3        1 UNL1     -0.3863
     30 O         -3.762823   0.778438   -1.510167 O.3        1 UNL1     -0.3829
     31 H         -0.085931   -0.153808   -2.658888 H        1 UNL1     0.0937
     32 H         0.0   0.0   0.0 H        1 UNL1     0.0671
     33 H         -2.412812   0.854825   0.602345 H        1 UNL1     0.0649
     34 H         -4.182668   -0.773111   -0.234094 H        1 UNL1     0.0683
     35 H         -3.842502   -1.498987   -2.551774 H        1 UNL1     0.1085
     36 H         -3.935123   -5.253832   -1.960613 H        1 UNL1     0.0691
     37 H         -4.272431   -1.713862   0.485819 H        1 UNL1     0.0691
     38 H         -7.197314   -4.560894   3.152669 H        1 UNL1     0.0385
     39 H         -8.879373   -4.591076   2.588481 H        1 UNL1     0.0385
     40 H         -7.980979   -2.260049   2.947012 H        1 UNL1     0.0789
     41 H         -7.852291   -0.383084   0.710706 H        1 UNL1     0.0623
     42 H         -9.565942   0.47769   -0.833525 H        1 UNL1     0.0654
     43 H         -11.726878   -3.220787   -0.515702 H        1 UNL1     0.0654
     44 H         -10.032963   -4.111755   0.981891 H        1 UNL1     0.0623
     45 H         -12.150593   -1.504433   -2.039631 H        1 UNL1     0.2921
     46 H         -5.266928   -6.980383   -1.214972 H        1 UNL1     0.2922
     47 H         -0.309075   -2.46551   -1.053839 H        1 UNL1     0.2126
     48 H         0.1057   1.814678   -1.066625 H        1 UNL1     0.2101
     49 H         -2.447077   -0.766773   1.925658 H        1 UNL1     0.2100
     50 H         -3.371821   0.771776   -2.408379 H        1 UNL1     0.2102
@<TRIPOS>BOND
     1     1     2    1
     2     1     6    1
     3     2     3    1
     4     3     4    1
     5     3    29    1
     6     3    33    1
     7     4     5    1
     8     5     6    1
     9     5     7    1
    10     5    35    1
    11     7     8    1
    12     8     9   ar
    13     8    13   ar
    14     9    10   ar
    15     9    36    1
    16    10    11   ar
    17    10    26    1
    18    11    12   ar
    19    11    14    1
    20    12    13   ar
    21    12    17    1
    22    13    37    1
    23    14    15    1
    24    14    25    2
    25    15    16    1
    26    15    38    1
    27    15    39    1
    28    16    17    1
    29    16    18    1
    30    16    40    1
    31    18    19   ar
    32    18    23   ar
    33    19    20   ar
    34    19    41    1
    35    20    21   ar
    36    20    42    1
    37    21    22   ar
    38    21    24    1
    39    22    23   ar
    40    22    43    1
    41    23    44    1
    42    24    45    1
    43    26    46    1
    44    27    47    1
    45    28    48    1
    46    29    49    1
    47    30    50    1
    48     1    31    1
    49     1    27    1
    50     2    32    1
    51     2    28    1
    52     4    34    1
    53     4    30    1
