@<TRIPOS>MOLECULE
*****
 50 53 0 0 0
SMALL
GASTEIGER

@<TRIPOS>ATOM
     1 C         -0.371054   -1.397585   1.637034 C.3        1 UNL1     0.1889
     2 C         -0.487883   -0.971268   0.148899 C.3        1 UNL1     0.1342
     3 C         -1.926304   -0.896695   -0.385749 C.3        1 UNL1     0.1174
     4 C         -2.841446   -1.962543   0.2222 C.3        1 UNL1     0.1456
     5 C         -2.695163   -2.063488   1.751505 C.3        1 UNL1     0.2326
     6 O         -1.337367   -2.332761   2.093191 O.3        1 UNL1     -0.3076
     7 O         -3.242481   -0.933817   2.455498 O.3        1 UNL1     -0.4605
     8 C         -4.583511   -0.67467   2.236384 C.ar        1 UNL1     0.1310
     9 C         -5.212853   -0.662261   0.986954 C.ar        1 UNL1     0.0226
     10 C         -6.583988   -0.405051   0.869759 C.ar        1 UNL1     0.1343
     11 C         -7.364415   -0.177297   2.002412 C.ar        1 UNL1     0.1007
     12 C         -6.73965   -0.146559   3.252015 C.ar        1 UNL1     0.1389
     13 C         -5.36048   -0.402596   3.36935 C.ar        1 UNL1     0.0229
     14 C         -8.83176   0.016607   1.943654 C.2        1 UNL1     0.1740
     15 C         -9.539098   0.024831   3.266966 C.3        1 UNL1     0.0520
     16 C         -8.685802   0.795933   4.264585 C.3        1 UNL1     0.1322
     17 O         -7.39111   0.174176   4.420345 O.3        1 UNL1     -0.4828
     18 C         -8.638179   2.302662   3.999583 C.ar        1 UNL1     -0.0067
     19 C         -9.270759   3.184497   4.899818 C.ar        1 UNL1     -0.0516
     20 C         -9.286786   4.564088   4.662261 C.ar        1 UNL1     -0.0198
     21 C         -8.681524   5.072408   3.526877 C.ar        1 UNL1     0.1169
     22 C         -8.021667   4.232769   2.638939 C.ar        1 UNL1     -0.0198
     23 C         -7.989572   2.855054   2.885776 C.ar        1 UNL1     -0.0516
     24 O         -8.750125   6.417186   3.309468 O.3        1 UNL1     -0.5068
     25 O         -9.462806   0.087604   0.892357 O.2        1 UNL1     -0.2917
     26 O         -7.136548   -0.406257   -0.377743 O.3        1 UNL1     -0.5058
     27 O         -0.239147   -0.303053   2.53 O.3        1 UNL1     -0.3648
     28 O         0.219629   -1.931391   -0.657511 O.3        1 UNL1     -0.3841
     29 O         -2.450117   0.425831   -0.249082 O.3        1 UNL1     -0.3863
     30 O         -2.525779   -3.245967   -0.359923 O.3        1 UNL1     -0.3829
     31 H         0.575785   -1.940026   1.733637 H        1 UNL1     0.0937
     32 H         0.0   0.0   0.0 H        1 UNL1     0.0671
     33 H         -1.892207   -1.086653   -1.467633 H        1 UNL1     0.0649
     34 H         -3.885872   -1.745407   -0.027655 H        1 UNL1     0.0683
     35 H         -3.273584   -2.958119   2.01408 H        1 UNL1     0.1085
     36 H         -4.672392   -0.887062   0.073999 H        1 UNL1     0.0691
     37 H         -4.897815   -0.371749   4.353465 H        1 UNL1     0.0691
     38 H         -9.668364   -1.016758   3.579873 H        1 UNL1     0.0385
     39 H         -10.532001   0.469715   3.140472 H        1 UNL1     0.0385
     40 H         -9.161958   0.688862   5.248623 H        1 UNL1     0.0789
     41 H         -9.760864   2.809429   5.793558 H        1 UNL1     0.0623
     42 H         -9.788134   5.232561   5.357823 H        1 UNL1     0.0654
     43 H         -7.531459   4.621862   1.754512 H        1 UNL1     0.0654
     44 H         -7.455977   2.229748   2.17647 H        1 UNL1     0.0623
     45 H         -7.909333   6.815941   3.586559 H        1 UNL1     0.2921
     46 H         -8.017866   -0.810395   -0.340818 H        1 UNL1     0.2922
     47 H         0.089114   -0.608095   3.387353 H        1 UNL1     0.2126
     48 H         1.170465   -1.803138   -0.475316 H        1 UNL1     0.2101
     49 H         -2.99877   0.482603   0.549386 H        1 UNL1     0.2100
     50 H         -1.991227   -3.748286   0.289416 H        1 UNL1     0.2102
@<TRIPOS>BOND
     1     1     2    1
     2     1     6    1
     3     2     3    1
     4     3     4    1
     5     3    29    1
     6     3    33    1
     7     4     5    1
     8     5     6    1
     9     5     7    1
    10     5    35    1
    11     7     8    1
    12     8     9   ar
    13     8    13   ar
    14     9    10   ar
    15     9    36    1
    16    10    11   ar
    17    10    26    1
    18    11    12   ar
    19    11    14    1
    20    12    13   ar
    21    12    17    1
    22    13    37    1
    23    14    15    1
    24    14    25    2
    25    15    16    1
    26    15    38    1
    27    15    39    1
    28    16    17    1
    29    16    18    1
    30    16    40    1
    31    18    19   ar
    32    18    23   ar
    33    19    20   ar
    34    19    41    1
    35    20    21   ar
    36    20    42    1
    37    21    22   ar
    38    21    24    1
    39    22    23   ar
    40    22    43    1
    41    23    44    1
    42    24    45    1
    43    26    46    1
    44    27    47    1
    45    28    48    1
    46    29    49    1
    47    30    50    1
    48     1    31    1
    49     1    27    1
    50     2    32    1
    51     2    28    1
    52     4    34    1
    53     4    30    1
