@<TRIPOS>MOLECULE
*****
 50 53 0 0 0
SMALL
GASTEIGER

@<TRIPOS>ATOM
     1 C         -0.373678   -1.395376   1.638321 C.3        1 UNL1     0.1889
     2 C         -0.488476   -0.970876   0.149509 C.3        1 UNL1     0.1342
     3 C         -1.926199   -0.896372   -0.387022 C.3        1 UNL1     0.1174
     4 C         -2.842545   -1.961073   0.221121 C.3        1 UNL1     0.1456
     5 C         -2.698207   -2.060163   1.750733 C.3        1 UNL1     0.2326
     6 O         -1.34095   -2.329576   2.094446 O.3        1 UNL1     -0.3076
     7 O         -3.245926   -0.929381   2.452628 O.3        1 UNL1     -0.4605
     8 C         -3.776961   -1.191072   3.702847 C.ar        1 UNL1     0.1310
     9 C         -4.626933   -2.257507   4.015199 C.ar        1 UNL1     0.0226
     10 C         -5.099794   -2.448201   5.319017 C.ar        1 UNL1     0.1343
     11 C         -4.71465   -1.589967   6.348064 C.ar        1 UNL1     0.1007
     12 C         -3.899215   -0.497668   6.040279 C.ar        1 UNL1     0.1389
     13 C         -3.426021   -0.304621   4.728695 C.ar        1 UNL1     0.0229
     14 C         -5.116709   -1.793248   7.759156 C.2        1 UNL1     0.1740
     15 C         -4.433849   -0.910791   8.762411 C.3        1 UNL1     0.0520
     16 C         -4.318924   0.488622   8.173862 C.3        1 UNL1     0.1322
     17 O         -3.547087   0.469579   6.952807 O.3        1 UNL1     -0.4828
     18 C         -5.657054   1.223965   8.067083 C.ar        1 UNL1     -0.0067
     19 C         -6.260411   1.736922   9.233724 C.ar        1 UNL1     -0.0516
     20 C         -7.506357   2.372897   9.177902 C.ar        1 UNL1     -0.0198
     21 C         -8.161026   2.495422   7.965374 C.ar        1 UNL1     0.1169
     22 C         -7.577141   2.030181   6.794278 C.ar        1 UNL1     -0.0198
     23 C         -6.3228   1.410588   6.847104 C.ar        1 UNL1     -0.0516
     24 O         -9.389996   3.086977   7.955602 O.3        1 UNL1     -0.5068
     25 O         -5.894391   -2.672462   8.120648 O.2        1 UNL1     -0.2917
     26 O         -5.926684   -3.507013   5.55725 O.3        1 UNL1     -0.5058
     27 O         -0.242422   -0.299782   2.530078 O.3        1 UNL1     -0.3648
     28 O         0.219635   -1.932305   -0.654816 O.3        1 UNL1     -0.3841
     29 O         -2.449626   0.426544   -0.252665 O.3        1 UNL1     -0.3863
     30 O         -2.526693   -3.245358   -0.359 O.3        1 UNL1     -0.3829
     31 H         0.572813   -1.938092   1.736782 H        1 UNL1     0.0937
     32 H         0.0   0.0   0.0 H        1 UNL1     0.0671
     33 H         -1.890835   -1.0877   -1.468624 H        1 UNL1     0.0649
     34 H         -3.886568   -1.743814   -0.030305 H        1 UNL1     0.0683
     35 H         -3.277329   -2.954221   2.013709 H        1 UNL1     0.1085
     36 H         -4.917845   -2.991463   3.271695 H        1 UNL1     0.0691
     37 H         -2.793345   0.554142   4.514826 H        1 UNL1     0.0691
     38 H         -3.445183   -1.33824   8.960792 H        1 UNL1     0.0385
     39 H         -5.004838   -0.921261   9.697098 H        1 UNL1     0.0385
     40 H         -3.714742   1.084495   8.8713 H        1 UNL1     0.0789
     41 H         -5.771058   1.645238   10.199011 H        1 UNL1     0.0623
     42 H         -7.966693   2.753685   10.086254 H        1 UNL1     0.0654
     43 H         -8.074253   2.13433   5.837229 H        1 UNL1     0.0654
     44 H         -5.89151   1.068448   5.911276 H        1 UNL1     0.0623
     45 H         -9.277164   4.024825   7.731042 H        1 UNL1     0.2921
     46 H         -5.715007   -3.894852   6.421071 H        1 UNL1     0.2922
     47 H         0.627215   0.111794   2.429092 H        1 UNL1     0.2126
     48 H         0.055257   -1.692276   -1.587071 H        1 UNL1     0.2101
     49 H         -2.999249   0.484546   0.545047 H        1 UNL1     0.2100
     50 H         -2.323915   -3.106192   -1.307276 H        1 UNL1     0.2102
@<TRIPOS>BOND
     1     1     2    1
     2     1     6    1
     3     2     3    1
     4     3     4    1
     5     3    29    1
     6     3    33    1
     7     4     5    1
     8     5     6    1
     9     5     7    1
    10     5    35    1
    11     7     8    1
    12     8     9   ar
    13     8    13   ar
    14     9    10   ar
    15     9    36    1
    16    10    11   ar
    17    10    26    1
    18    11    12   ar
    19    11    14    1
    20    12    13   ar
    21    12    17    1
    22    13    37    1
    23    14    15    1
    24    14    25    2
    25    15    16    1
    26    15    38    1
    27    15    39    1
    28    16    17    1
    29    16    18    1
    30    16    40    1
    31    18    19   ar
    32    18    23   ar
    33    19    20   ar
    34    19    41    1
    35    20    21   ar
    36    20    42    1
    37    21    22   ar
    38    21    24    1
    39    22    23   ar
    40    22    43    1
    41    23    44    1
    42    24    45    1
    43    26    46    1
    44    27    47    1
    45    28    48    1
    46    29    49    1
    47    30    50    1
    48     1    31    1
    49     1    27    1
    50     2    32    1
    51     2    28    1
    52     4    34    1
    53     4    30    1
