@<TRIPOS>MOLECULE
*****
 50 53 0 0 0
SMALL
GASTEIGER

@<TRIPOS>ATOM
     1 C         -0.34573   -1.336193   1.692886 C.3        1 UNL1     0.1889
     2 C         -0.469124   -0.973634   0.188471 C.3        1 UNL1     0.1342
     3 C         -1.908117   -0.949009   -0.349265 C.3        1 UNL1     0.1174
     4 C         -2.803103   -2.006591   0.301608 C.3        1 UNL1     0.1456
     5 C         -2.656617   -2.041853   1.833816 C.3        1 UNL1     0.2326
     6 O         -1.294241   -2.27046   2.186716 O.3        1 UNL1     -0.3076
     7 O         -3.226533   -0.895095   2.490674 O.3        1 UNL1     -0.4605
     8 C         -3.741918   -1.114868   3.75543 C.ar        1 UNL1     0.1310
     9 C         -4.566237   -2.184901   4.119883 C.ar        1 UNL1     0.0226
     10 C         -5.024569   -2.330258   5.434685 C.ar        1 UNL1     0.1343
     11 C         -4.649876   -1.421309   6.423249 C.ar        1 UNL1     0.1007
     12 C         -3.860606   -0.325978   6.062573 C.ar        1 UNL1     0.1389
     13 C         -3.402053   -0.178593   4.73991 C.ar        1 UNL1     0.0229
     14 C         -5.036306   -1.573202   7.845133 C.2        1 UNL1     0.1740
     15 C         -4.364701   -0.634843   8.804288 C.3        1 UNL1     0.0520
     16 C         -4.284587   0.740548   8.15634 C.3        1 UNL1     0.1322
     17 O         -3.522189   0.686235   6.930424 O.3        1 UNL1     -0.4828
     18 C         -5.639042   1.442212   8.03047 C.ar        1 UNL1     -0.0067
     19 C         -6.002856   2.030168   6.801584 C.ar        1 UNL1     -0.0516
     20 C         -7.213288   2.720405   6.665972 C.ar        1 UNL1     -0.0198
     21 C         -8.063277   2.835767   7.751346 C.ar        1 UNL1     0.1169
     22 C         -7.748146   2.23895   8.965158 C.ar        1 UNL1     -0.0198
     23 C         -6.546291   1.532894   9.095868 C.ar        1 UNL1     -0.0516
     24 O         -9.215785   3.547642   7.592097 O.3        1 UNL1     -0.5068
     25 O         -5.791997   -2.452616   8.25016 O.2        1 UNL1     -0.2917
     26 O         -5.826561   -3.395323   5.724564 O.3        1 UNL1     -0.5058
     27 O         -0.236081   -0.203595   2.540226 O.3        1 UNL1     -0.3648
     28 O         0.257783   -1.952108   -0.577623 O.3        1 UNL1     -0.3841
     29 O         -2.457631   0.367588   -0.267161 O.3        1 UNL1     -0.3863
     30 O         -2.461951   -3.306443   -0.22725 O.3        1 UNL1     -0.3829
     31 H         0.611341   -1.855723   1.811983 H        1 UNL1     0.0937
     32 H         0.0   0.0   0.0 H        1 UNL1     0.0671
     33 H         -1.86912   -1.182492   -1.422431 H        1 UNL1     0.0649
     34 H         -3.851261   -1.820214   0.042706 H        1 UNL1     0.0683
     35 H         -3.217876   -2.936024   2.132692 H        1 UNL1     0.1085
     36 H         -4.847143   -2.955641   3.410535 H        1 UNL1     0.0691
     37 H         -2.789723   0.683564   4.484506 H        1 UNL1     0.0691
     38 H         -3.365525   -1.032485   9.011784 H        1 UNL1     0.0385
     39 H         -4.927932   -0.617866   9.743576 H        1 UNL1     0.0385
     40 H         -3.687885   1.378045   8.822722 H        1 UNL1     0.0789
     41 H         -5.348779   1.961493   5.937225 H        1 UNL1     0.0623
     42 H         -7.47707   3.179616   5.716469 H        1 UNL1     0.0654
     43 H         -8.413491   2.31029   9.817295 H        1 UNL1     0.0654
     44 H         -6.337063   1.070281   10.055586 H        1 UNL1     0.0623
     45 H         -8.982474   4.460856   7.359025 H        1 UNL1     0.2921
     46 H         -5.429037   -3.913877   6.441843 H        1 UNL1     0.2922
     47 H         0.508696   0.349273   2.265446 H        1 UNL1     0.2126
     48 H         1.193481   -1.88006   -0.307418 H        1 UNL1     0.2101
     49 H         -2.018928   0.948886   -0.908586 H        1 UNL1     0.2100
     50 H         -2.697447   -3.316365   -1.178122 H        1 UNL1     0.2102
@<TRIPOS>BOND
     1     1     2    1
     2     1     6    1
     3     2     3    1
     4     3     4    1
     5     3    29    1
     6     3    33    1
     7     4     5    1
     8     5     6    1
     9     5     7    1
    10     5    35    1
    11     7     8    1
    12     8     9   ar
    13     8    13   ar
    14     9    10   ar
    15     9    36    1
    16    10    11   ar
    17    10    26    1
    18    11    12   ar
    19    11    14    1
    20    12    13   ar
    21    12    17    1
    22    13    37    1
    23    14    15    1
    24    14    25    2
    25    15    16    1
    26    15    38    1
    27    15    39    1
    28    16    17    1
    29    16    18    1
    30    16    40    1
    31    18    19   ar
    32    18    23   ar
    33    19    20   ar
    34    19    41    1
    35    20    21   ar
    36    20    42    1
    37    21    22   ar
    38    21    24    1
    39    22    23   ar
    40    22    43    1
    41    23    44    1
    42    24    45    1
    43    26    46    1
    44    27    47    1
    45    28    48    1
    46    29    49    1
    47    30    50    1
    48     1    31    1
    49     1    27    1
    50     2    32    1
    51     2    28    1
    52     4    34    1
    53     4    30    1
