@<TRIPOS>MOLECULE
*****
 50 53 0 0 0
SMALL
GASTEIGER

@<TRIPOS>ATOM
     1 C         -0.33073   -1.356267   1.67987 C.3        1 UNL1     0.1889
     2 C         -0.466214   -0.976491   0.180752 C.3        1 UNL1     0.1342
     3 C         -1.909328   -0.947905   -0.345621 C.3        1 UNL1     0.1174
     4 C         -2.797715   -2.01437   0.299776 C.3        1 UNL1     0.1456
     5 C         -2.639414   -2.067157   1.830305 C.3        1 UNL1     0.2326
     6 O         -1.274029   -2.297689   2.17008 O.3        1 UNL1     -0.3076
     7 O         -3.205974   -0.928989   2.504771 O.3        1 UNL1     -0.4605
     8 C         -3.721521   -1.166595   3.766231 C.ar        1 UNL1     0.1310
     9 C         -4.545809   -2.241718   4.115458 C.ar        1 UNL1     0.0226
     10 C         -5.004315   -2.405616   5.428017 C.ar        1 UNL1     0.1343
     11 C         -4.629833   -1.510654   6.429339 C.ar        1 UNL1     0.1007
     12 C         -3.840598   -0.410291   6.084241 C.ar        1 UNL1     0.1389
     13 C         -3.381869   -0.244255   4.763851 C.ar        1 UNL1     0.0229
     14 C         -5.016453   -1.68259   7.848887 C.2        1 UNL1     0.1740
     15 C         -4.345057   -0.757784   8.821261 C.3        1 UNL1     0.0520
     16 C         -4.264959   0.626604   8.192763 C.3        1 UNL1     0.1322
     17 O         -3.502383   0.589622   6.966313 O.3        1 UNL1     -0.4828
     18 C         -5.619451   1.329868   8.076596 C.ar        1 UNL1     -0.0067
     19 C         -5.983137   1.935048   6.856062 C.ar        1 UNL1     -0.0516
     20 C         -7.193603   2.627036   6.730013 C.ar        1 UNL1     -0.0198
     21 C         -8.043755   2.727033   7.816783 C.ar        1 UNL1     0.1169
     22 C         -7.728749   2.1132   9.022113 C.ar        1 UNL1     -0.0198
     23 C         -6.526858   1.405464   9.143036 C.ar        1 UNL1     -0.0516
     24 O         -9.196297   3.440992   7.667413 O.3        1 UNL1     -0.5068
     25 O         -5.772133   -2.567679   8.241379 O.2        1 UNL1     -0.2917
     26 O         -5.806266   -3.47472   5.70275 O.3        1 UNL1     -0.5058
     27 O         -0.216262   -0.233394   2.539427 O.3        1 UNL1     -0.3648
     28 O         0.256244   -1.944874   -0.60219 O.3        1 UNL1     -0.3841
     29 O         -2.460154   0.366783   -0.24404 O.3        1 UNL1     -0.3863
     30 O         -2.4587   -3.307466   -0.246725 O.3        1 UNL1     -0.3829
     31 H         0.627999   -1.875632   1.785594 H        1 UNL1     0.0937
     32 H         0.0   0.0   0.0 H        1 UNL1     0.0671
     33 H         -1.878227   -1.168873   -1.421691 H        1 UNL1     0.0649
     34 H         -3.848106   -1.826658   0.051093 H        1 UNL1     0.0683
     35 H         -3.19703   -2.965615   2.123079 H        1 UNL1     0.1085
     36 H         -4.826554   -3.002411   3.395284 H        1 UNL1     0.0691
     37 H         -2.769571   0.621461   4.520704 H        1 UNL1     0.0691
     38 H         -3.34588   -1.158233   9.023279 H        1 UNL1     0.0385
     39 H         -4.908422   -0.754082   9.760614 H        1 UNL1     0.0385
     40 H         -3.668401   1.254696   8.868144 H        1 UNL1     0.0789
     41 H         -5.328932   1.878606   5.990915 H        1 UNL1     0.0623
     42 H         -7.457287   3.099555   5.787035 H        1 UNL1     0.0654
     43 H         -8.394221   2.172479   9.875075 H        1 UNL1     0.0654
     44 H         -6.31773   0.929395   10.096172 H        1 UNL1     0.0623
     45 H         -8.962806   4.36238   7.469317 H        1 UNL1     0.2921
     46 H         -5.408803   -4.003295   6.412709 H        1 UNL1     0.2922
     47 H         0.515232   0.332426   2.255483 H        1 UNL1     0.2126
     48 H         1.197057   -1.858802   -0.354813 H        1 UNL1     0.2101
     49 H         -2.027256   0.956167   -0.882021 H        1 UNL1     0.2100
     50 H         -2.701476   -3.306738   -1.195815 H        1 UNL1     0.2102
@<TRIPOS>BOND
     1     1     2    1
     2     1     6    1
     3     2     3    1
     4     3     4    1
     5     3    29    1
     6     3    33    1
     7     4     5    1
     8     5     6    1
     9     5     7    1
    10     5    35    1
    11     7     8    1
    12     8     9   ar
    13     8    13   ar
    14     9    10   ar
    15     9    36    1
    16    10    11   ar
    17    10    26    1
    18    11    12   ar
    19    11    14    1
    20    12    13   ar
    21    12    17    1
    22    13    37    1
    23    14    15    1
    24    14    25    2
    25    15    16    1
    26    15    38    1
    27    15    39    1
    28    16    17    1
    29    16    18    1
    30    16    40    1
    31    18    19   ar
    32    18    23   ar
    33    19    20   ar
    34    19    41    1
    35    20    21   ar
    36    20    42    1
    37    21    22   ar
    38    21    24    1
    39    22    23   ar
    40    22    43    1
    41    23    44    1
    42    24    45    1
    43    26    46    1
    44    27    47    1
    45    28    48    1
    46    29    49    1
    47    30    50    1
    48     1    31    1
    49     1    27    1
    50     2    32    1
    51     2    28    1
    52     4    34    1
    53     4    30    1
