@<TRIPOS>MOLECULE
*****
 50 53 0 0 0
SMALL
GASTEIGER

@<TRIPOS>ATOM
     1 C         -0.689398   -1.038011   1.793897 C.3        1 UNL1     0.1889
     2 C         -0.550165   -0.914899   0.252665 C.3        1 UNL1     0.1342
     3 C         -1.881269   -0.927185   -0.514458 C.3        1 UNL1     0.1174
     4 C         -2.92965   -1.837079   0.130606 C.3        1 UNL1     0.1456
     5 C         -3.031091   -1.633605   1.653325 C.3        1 UNL1     0.2326
     6 O         -1.758217   -1.84934   2.258404 O.3        1 UNL1     -0.3076
     7 O         -3.629039   -0.378463   2.025342 O.3        1 UNL1     -0.4605
     8 C         -4.351169   -0.377073   3.205195 C.ar        1 UNL1     0.1310
     9 C         -5.285093   -1.347116   3.584804 C.ar        1 UNL1     0.0226
     10 C         -5.954534   -1.266287   4.811677 C.ar        1 UNL1     0.1343
     11 C         -5.688486   -0.225163   5.700001 C.ar        1 UNL1     0.1007
     12 C         -4.7882   0.771629   5.31442 C.ar        1 UNL1     0.1389
     13 C         -4.117169   0.691546   4.079618 C.ar        1 UNL1     0.0229
     14 C         -6.30449   -0.136222   7.044167 C.2        1 UNL1     0.1740
     15 C         -5.739417   0.919189   7.948793 C.3        1 UNL1     0.0520
     16 C         -5.475648   2.170763   7.122994 C.3        1 UNL1     0.1322
     17 O         -4.532563   1.896715   6.063486 O.3        1 UNL1     -0.4828
     18 C         -6.748705   2.889053   6.669001 C.ar        1 UNL1     -0.0067
     19 C         -6.88317   3.273175   5.31897 C.ar        1 UNL1     -0.0516
     20 C         -8.013398   3.973404   4.880533 C.ar        1 UNL1     -0.0198
     21 C         -9.010468   4.301176   5.781779 C.ar        1 UNL1     0.1169
     22 C         -8.922265   3.907517   7.110723 C.ar        1 UNL1     -0.0198
     23 C         -7.80073   3.191186   7.54556 C.ar        1 UNL1     -0.0516
     24 O         -10.078609   5.01664   5.326163 O.3        1 UNL1     -0.5068
     25 O         -7.165905   -0.914058   7.445938 O.2        1 UNL1     -0.2917
     26 O         -6.854299   -2.244023   5.121584 O.3        1 UNL1     -0.5058
     27 O         -0.648789   0.210362   2.466729 O.3        1 UNL1     -0.3648
     28 O         0.229872   -2.026652   -0.225092 O.3        1 UNL1     -0.3841
     29 O         -2.357599   0.40361   -0.724756 O.3        1 UNL1     -0.3863
     30 O         -2.586602   -3.21521   -0.131621 O.3        1 UNL1     -0.3829
     31 H         0.203949   -1.564186   2.147662 H        1 UNL1     0.0937
     32 H         0.0   0.0   -0.0 H        1 UNL1     0.0671
     33 H         -1.686026   -1.329256   -1.51842 H        1 UNL1     0.0649
     34 H         -3.910328   -1.658743   -0.32422 H        1 UNL1     0.0683
     35 H         -3.68489   -2.449445   1.986239 H        1 UNL1     0.1085
     36 H         -5.49491   -2.210718   2.963283 H        1 UNL1     0.0691
     37 H         -3.421859   1.480967   3.802398 H        1 UNL1     0.0691
     38 H         -4.81139   0.52589   8.377291 H        1 UNL1     0.0385
     39 H         -6.442857   1.104143   8.767782 H        1 UNL1     0.0385
     40 H         -4.955707   2.885364   7.775318 H        1 UNL1     0.0789
     41 H         -6.110209   3.035812   4.593823 H        1 UNL1     0.0623
     42 H         -8.099904   4.274428   3.839421 H        1 UNL1     0.0654
     43 H         -9.704307   4.145841   7.821725 H        1 UNL1     0.0654
     44 H         -7.769804   2.890494   8.588379 H        1 UNL1     0.0623
     45 H         -9.756131   5.868278   4.989361 H        1 UNL1     0.2921
     46 H         -6.607458   -2.655308   5.964985 H        1 UNL1     0.2922
     47 H         0.162395   0.686431   2.240457 H        1 UNL1     0.2126
     48 H         1.112402   -1.945963   0.185229 H        1 UNL1     0.2101
     49 H         -1.78546   0.862322   -1.360393 H        1 UNL1     0.2100
     50 H         -2.668028   -3.367966   -1.095855 H        1 UNL1     0.2102
@<TRIPOS>BOND
     1     1     2    1
     2     1     6    1
     3     2     3    1
     4     3     4    1
     5     3    29    1
     6     3    33    1
     7     4     5    1
     8     5     6    1
     9     5     7    1
    10     5    35    1
    11     7     8    1
    12     8     9   ar
    13     8    13   ar
    14     9    10   ar
    15     9    36    1
    16    10    11   ar
    17    10    26    1
    18    11    12   ar
    19    11    14    1
    20    12    13   ar
    21    12    17    1
    22    13    37    1
    23    14    15    1
    24    14    25    2
    25    15    16    1
    26    15    38    1
    27    15    39    1
    28    16    17    1
    29    16    18    1
    30    16    40    1
    31    18    19   ar
    32    18    23   ar
    33    19    20   ar
    34    19    41    1
    35    20    21   ar
    36    20    42    1
    37    21    22   ar
    38    21    24    1
    39    22    23   ar
    40    22    43    1
    41    23    44    1
    42    24    45    1
    43    26    46    1
    44    27    47    1
    45    28    48    1
    46    29    49    1
    47    30    50    1
    48     1    31    1
    49     1    27    1
    50     2    32    1
    51     2    28    1
    52     4    34    1
    53     4    30    1
