@<TRIPOS>MOLECULE
*****
 50 53 0 0 0
SMALL
GASTEIGER

@<TRIPOS>ATOM
     1 C         -0.325159   -1.353071   1.68353 C.3        1 UNL1     0.1889
     2 C         -0.464299   -0.976824   0.183858 C.3        1 UNL1     0.1342
     3 C         -1.908527   -0.951678   -0.339629 C.3        1 UNL1     0.1174
     4 C         -2.793908   -2.018114   0.309933 C.3        1 UNL1     0.1456
     5 C         -2.632404   -2.067268   1.840248 C.3        1 UNL1     0.2326
     6 O         -1.265967   -2.294894   2.177742 O.3        1 UNL1     -0.3076
     7 O         -3.199389   -0.928507   2.513355 O.3        1 UNL1     -0.4605
     8 C         -3.708582   -1.163343   3.777911 C.ar        1 UNL1     0.1310
     9 C         -4.530879   -2.23784   4.133697 C.ar        1 UNL1     0.0226
     10 C         -4.982794   -2.398839   5.448899 C.ar        1 UNL1     0.1343
     11 C         -4.603517   -1.501517   6.446297 C.ar        1 UNL1     0.1007
     12 C         -3.816256   -0.401779   6.094756 C.ar        1 UNL1     0.1389
     13 C         -3.364159   -0.238658   4.771718 C.ar        1 UNL1     0.0229
     14 C         -4.98301   -1.670296   7.868145 C.2        1 UNL1     0.1740
     15 C         -4.306975   -0.743134   8.835045 C.3        1 UNL1     0.0520
     16 C         -4.230319   0.639835   8.203 C.3        1 UNL1     0.1322
     17 O         -3.473865   0.600215   6.972847 O.3        1 UNL1     -0.4828
     18 C         -5.585529   1.342548   8.091992 C.ar        1 UNL1     -0.0067
     19 C         -5.955435   1.944866   6.871912 C.ar        1 UNL1     -0.0516
     20 C         -7.166668   2.636311   6.750328 C.ar        1 UNL1     -0.0198
     21 C         -8.011408   2.738609   7.841097 C.ar        1 UNL1     0.1169
     22 C         -7.690256   2.127593   9.046236 C.ar        1 UNL1     -0.0198
     23 C         -6.487619   1.420386   9.162771 C.ar        1 UNL1     -0.0516
     24 O         -9.164838   3.451984   7.695853 O.3        1 UNL1     -0.5068
     25 O         -5.736527   -2.554645   8.26642 O.2        1 UNL1     -0.2917
     26 O         -5.783127   -3.467481   5.730067 O.3        1 UNL1     -0.5058
     27 O         -0.210717   -0.228121   2.540372 O.3        1 UNL1     -0.3648
     28 O         0.258093   -1.945793   -0.598418 O.3        1 UNL1     -0.3841
     29 O         -2.461224   0.362361   -0.239826 O.3        1 UNL1     -0.3863
     30 O         -2.453962   -3.311877   -0.234404 O.3        1 UNL1     -0.3829
     31 H         0.634604   -1.870688   1.788444 H        1 UNL1     0.0937
     32 H         0.0   0.0   0.0 H        1 UNL1     0.0671
     33 H         -1.879269   -1.174974   -1.41527 H        1 UNL1     0.0649
     34 H         -3.845099   -1.832609   0.06298 H        1 UNL1     0.0683
     35 H         -3.188   -2.965955   2.136141 H        1 UNL1     0.1085
     36 H         -4.815047   -3.000231   3.41667 H        1 UNL1     0.0691
     37 H         -2.753273   0.626628   4.523545 H        1 UNL1     0.0691
     38 H         -3.306713   -1.142912   9.032986 H        1 UNL1     0.0385
     39 H         -4.865646   -0.737407   9.777187 H        1 UNL1     0.0385
     40 H         -3.630537   1.26959   8.873962 H        1 UNL1     0.0789
     41 H         -5.305543   1.886588   6.003641 H        1 UNL1     0.0623
     42 H         -7.435159   3.106623   5.807603 H        1 UNL1     0.0654
     43 H         -8.351475   2.188678   9.902371 H        1 UNL1     0.0654
     44 H         -6.273633   0.946536   10.115935 H        1 UNL1     0.0623
     45 H         -8.932869   4.367952   7.472451 H        1 UNL1     0.2921
     46 H         -5.381924   -3.994448   6.439118 H        1 UNL1     0.2922
     47 H         0.529662   0.329631   2.263583 H        1 UNL1     0.2126
     48 H         1.196153   -1.873344   -0.336643 H        1 UNL1     0.2101
     49 H         -2.030559   0.951016   -0.879988 H        1 UNL1     0.2100
     50 H         -2.698673   -3.313631   -1.182996 H        1 UNL1     0.2102
@<TRIPOS>BOND
     1     1     2    1
     2     1     6    1
     3     2     3    1
     4     3     4    1
     5     3    29    1
     6     3    33    1
     7     4     5    1
     8     5     6    1
     9     5     7    1
    10     5    35    1
    11     7     8    1
    12     8     9   ar
    13     8    13   ar
    14     9    10   ar
    15     9    36    1
    16    10    11   ar
    17    10    26    1
    18    11    12   ar
    19    11    14    1
    20    12    13   ar
    21    12    17    1
    22    13    37    1
    23    14    15    1
    24    14    25    2
    25    15    16    1
    26    15    38    1
    27    15    39    1
    28    16    17    1
    29    16    18    1
    30    16    40    1
    31    18    19   ar
    32    18    23   ar
    33    19    20   ar
    34    19    41    1
    35    20    21   ar
    36    20    42    1
    37    21    22   ar
    38    21    24    1
    39    22    23   ar
    40    22    43    1
    41    23    44    1
    42    24    45    1
    43    26    46    1
    44    27    47    1
    45    28    48    1
    46    29    49    1
    47    30    50    1
    48     1    31    1
    49     1    27    1
    50     2    32    1
    51     2    28    1
    52     4    34    1
    53     4    30    1
