@<TRIPOS>MOLECULE
*****
 50 53 0 0 0
SMALL
GASTEIGER

@<TRIPOS>ATOM
     1 C         -0.136867   -1.113951   1.873816 C.3        1 UNL1     0.1889
     2 C         -0.590949   -0.824487   0.417807 C.3        1 UNL1     0.1342
     3 C         -2.084488   -0.498334   0.264737 C.3        1 UNL1     0.1174
     4 C         -2.965525   -1.277191   1.244672 C.3        1 UNL1     0.1456
     5 C         -2.414091   -1.252649   2.68192 C.3        1 UNL1     0.2326
     6 O         -1.085691   -1.770173   2.701765 O.3        1 UNL1     -0.3076
     7 O         -2.530119   0.032884   3.318522 O.3        1 UNL1     -0.4605
     8 C         -2.723219   0.015877   4.688175 C.ar        1 UNL1     0.1310
     9 C         -3.620789   -0.813047   5.369757 C.ar        1 UNL1     0.0226
     10 C         -3.731625   -0.767635   6.764589 C.ar        1 UNL1     0.1343
     11 C         -2.92971   0.09182   7.514329 C.ar        1 UNL1     0.1007
     12 C         -2.058988   0.953553   6.841987 C.ar        1 UNL1     0.1389
     13 C         -1.949626   0.90957   5.439298 C.ar        1 UNL1     0.0229
     14 C         -2.9456   0.121169   8.995221 C.2        1 UNL1     0.1740
     15 C         -1.865844   0.939647   9.640024 C.3        1 UNL1     0.0520
     16 C         -1.682596   2.217293   8.832562 C.3        1 UNL1     0.1322
     17 O         -1.302366   1.914077   7.472211 O.3        1 UNL1     -0.4828
     18 C         -2.848897   3.200107   8.961183 C.ar        1 UNL1     -0.0067
     19 C         -2.728164   4.493643   8.413095 C.ar        1 UNL1     -0.0516
     20 C         -3.757066   5.432478   8.554203 C.ar        1 UNL1     -0.0198
     21 C         -4.906062   5.093199   9.24596 C.ar        1 UNL1     0.1169
     22 C         -5.068263   3.81654   9.768137 C.ar        1 UNL1     -0.0198
     23 C         -4.047198   2.871625   9.611236 C.ar        1 UNL1     -0.0516
     24 O         -5.87078   6.045715   9.395736 O.3        1 UNL1     -0.5068
     25 O         -3.728826   -0.535658   9.676117 O.2        1 UNL1     -0.2917
     26 O         -4.627033   -1.601481   7.368353 O.3        1 UNL1     -0.5058
     27 O         0.434455   0.011255   2.522113 O.3        1 UNL1     -0.3648
     28 O         -0.322601   -1.989824   -0.383869 O.3        1 UNL1     -0.3841
     29 O         -2.304079   0.912476   0.324117 O.3        1 UNL1     -0.3863
     30 O         -3.060874   -2.650339   0.807564 O.3        1 UNL1     -0.3829
     31 H         0.686308   -1.83372   1.807533 H        1 UNL1     0.0937
     32 H         0.0   0.0   0.0 H        1 UNL1     0.0671
     33 H         -2.391463   -0.799078   -0.746717 H        1 UNL1     0.0649
     34 H         -3.981894   -0.868077   1.24023 H        1 UNL1     0.0683
     35 H         -3.044656   -1.971875   3.219489 H        1 UNL1     0.1085
     36 H         -4.231725   -1.542163   4.848924 H        1 UNL1     0.0691
     37 H         -1.265071   1.591672   4.939684 H        1 UNL1     0.0691
     38 H         -0.950432   0.338359   9.641049 H        1 UNL1     0.0385
     39 H         -2.1425   1.14326   10.680112 H        1 UNL1     0.0385
     40 H         -0.812821   2.742239   9.250227 H        1 UNL1     0.0789
     41 H         -1.832481   4.787416   7.873558 H        1 UNL1     0.0623
     42 H         -3.647082   6.430534   8.13731 H        1 UNL1     0.0654
     43 H         -5.970211   3.535513   10.298632 H        1 UNL1     0.0654
     44 H         -4.212096   1.880544   10.022833 H        1 UNL1     0.0623
     45 H         -5.513086   6.760481   9.94699 H        1 UNL1     0.2921
     46 H         -4.171148   -2.135561   8.037933 H        1 UNL1     0.2922
     47 H         1.162366   0.368   1.994156 H        1 UNL1     0.2126
     48 H         0.64581   -2.030124   -0.503408 H        1 UNL1     0.2101
     49 H         -2.11291   1.312834   -0.538994 H        1 UNL1     0.2100
     50 H         -3.565059   -2.6651   -0.032253 H        1 UNL1     0.2102
@<TRIPOS>BOND
     1     1     2    1
     2     1     6    1
     3     2     3    1
     4     3     4    1
     5     3    29    1
     6     3    33    1
     7     4     5    1
     8     5     6    1
     9     5     7    1
    10     5    35    1
    11     7     8    1
    12     8     9   ar
    13     8    13   ar
    14     9    10   ar
    15     9    36    1
    16    10    11   ar
    17    10    26    1
    18    11    12   ar
    19    11    14    1
    20    12    13   ar
    21    12    17    1
    22    13    37    1
    23    14    15    1
    24    14    25    2
    25    15    16    1
    26    15    38    1
    27    15    39    1
    28    16    17    1
    29    16    18    1
    30    16    40    1
    31    18    19   ar
    32    18    23   ar
    33    19    20   ar
    34    19    41    1
    35    20    21   ar
    36    20    42    1
    37    21    22   ar
    38    21    24    1
    39    22    23   ar
    40    22    43    1
    41    23    44    1
    42    24    45    1
    43    26    46    1
    44    27    47    1
    45    28    48    1
    46    29    49    1
    47    30    50    1
    48     1    31    1
    49     1    27    1
    50     2    32    1
    51     2    28    1
    52     4    34    1
    53     4    30    1
