@<TRIPOS>MOLECULE
*****
 50 53 0 0 0
SMALL
GASTEIGER

@<TRIPOS>ATOM
     1 C         -2.165647   -0.165043   -0.231381 C.3        1 UNL1     0.1889
     2 C         -0.744412   0.091887   -0.800606 C.3        1 UNL1     0.1342
     3 C         -0.567922   1.450773   -1.495405 C.3        1 UNL1     0.1174
     4 C         -1.827828   1.907089   -2.235357 C.3        1 UNL1     0.1456
     5 C         -3.102176   1.744343   -1.386879 C.3        1 UNL1     0.2326
     6 O         -3.242061   0.386392   -0.975456 O.3        1 UNL1     -0.3076
     7 O         -3.186903   2.678029   -0.294921 O.3        1 UNL1     -0.4605
     8 C         -4.461654   3.079774   0.061646 C.ar        1 UNL1     0.1310
     9 C         -5.466475   3.472288   -0.829178 C.ar        1 UNL1     0.0226
     10 C         -6.734874   3.846824   -0.37006 C.ar        1 UNL1     0.1343
     11 C         -7.03688   3.815062   0.990684 C.ar        1 UNL1     0.1007
     12 C         -6.029226   3.464264   1.893101 C.ar        1 UNL1     0.1389
     13 C         -4.753143   3.090255   1.431406 C.ar        1 UNL1     0.0229
     14 C         -8.384903   4.119782   1.523726 C.2        1 UNL1     0.1740
     15 C         -8.590224   3.820692   2.979727 C.3        1 UNL1     0.0520
     16 C         -7.335888   4.232898   3.737806 C.3        1 UNL1     0.1322
     17 O         -6.184516   3.503177   3.259351 O.3        1 UNL1     -0.4828
     18 C         -7.136642   5.74815   3.821688 C.ar        1 UNL1     -0.0067
     19 C         -7.27412   6.396893   5.066054 C.ar        1 UNL1     -0.0516
     20 C         -7.145216   7.78709   5.169476 C.ar        1 UNL1     -0.0198
     21 C         -6.886762   8.538833   4.037261 C.ar        1 UNL1     0.1169
     22 C         -6.712978   7.925399   2.803431 C.ar        1 UNL1     -0.0198
     23 C         -6.823541   6.53338   2.70286 C.ar        1 UNL1     -0.0516
     24 O         -6.805401   9.893843   4.170406 O.3        1 UNL1     -0.5068
     25 O         -9.314587   4.515317   0.825354 O.2        1 UNL1     -0.2917
     26 O         -7.67011   4.220371   -1.290593 O.3        1 UNL1     -0.5058
     27 O         -2.281747   0.126561   1.152192 O.3        1 UNL1     -0.3648
     28 O         -0.451541   -0.927992   -1.773631 O.3        1 UNL1     -0.3841
     29 O         -0.080343   2.430566   -0.576489 O.3        1 UNL1     -0.3863
     30 O         -1.97363   1.131927   -3.445132 O.3        1 UNL1     -0.3829
     31 H         -2.33743   -1.24512   -0.294659 H        1 UNL1     0.0937
     32 H         0.0   0.0   0.0 H        1 UNL1     0.0671
     33 H         0.222267   1.340847   -2.251207 H        1 UNL1     0.0649
     34 H         -1.725472   2.955453   -2.53678 H        1 UNL1     0.0683
     35 H         -3.917417   1.949589   -2.091957 H        1 UNL1     0.1085
     36 H         -5.311837   3.464492   -1.902559 H        1 UNL1     0.0691
     37 H         -3.985702   2.822417   2.154448 H        1 UNL1     0.0691
     38 H         -8.773246   2.745009   3.074258 H        1 UNL1     0.0385
     39 H         -9.480797   4.351532   3.333093 H        1 UNL1     0.0385
     40 H         -7.460797   3.898288   4.776533 H        1 UNL1     0.0789
     41 H         -7.486151   5.830175   5.96801 H        1 UNL1     0.0623
     42 H         -7.265196   8.276855   6.132673 H        1 UNL1     0.0654
     43 H         -6.495413   8.503073   1.912999 H        1 UNL1     0.0654
     44 H         -6.671324   6.086524   1.72511 H        1 UNL1     0.0623
     45 H         -5.867532   10.143384   4.199549 H        1 UNL1     0.2921
     46 H         -8.539918   3.883907   -1.022939 H        1 UNL1     0.2922
     47 H         -1.613385   -0.360382   1.654226 H        1 UNL1     0.2126
     48 H         -0.29791   -1.753867   -1.275576 H        1 UNL1     0.2101
     49 H         -0.817707   2.966393   -0.243356 H        1 UNL1     0.2100
     50 H         -1.240415   1.373533   -4.048237 H        1 UNL1     0.2102
@<TRIPOS>BOND
     1     1     2    1
     2     1     6    1
     3     2     3    1
     4     3     4    1
     5     3    29    1
     6     3    33    1
     7     4     5    1
     8     5     6    1
     9     5     7    1
    10     5    35    1
    11     7     8    1
    12     8     9   ar
    13     8    13   ar
    14     9    10   ar
    15     9    36    1
    16    10    11   ar
    17    10    26    1
    18    11    12   ar
    19    11    14    1
    20    12    13   ar
    21    12    17    1
    22    13    37    1
    23    14    15    1
    24    14    25    2
    25    15    16    1
    26    15    38    1
    27    15    39    1
    28    16    17    1
    29    16    18    1
    30    16    40    1
    31    18    19   ar
    32    18    23   ar
    33    19    20   ar
    34    19    41    1
    35    20    21   ar
    36    20    42    1
    37    21    22   ar
    38    21    24    1
    39    22    23   ar
    40    22    43    1
    41    23    44    1
    42    24    45    1
    43    26    46    1
    44    27    47    1
    45    28    48    1
    46    29    49    1
    47    30    50    1
    48     1    31    1
    49     1    27    1
    50     2    32    1
    51     2    28    1
    52     4    34    1
    53     4    30    1
