@<TRIPOS>MOLECULE
*****
 50 53 0 0 0
SMALL
GASTEIGER

@<TRIPOS>ATOM
     1 C         -0.345606   -1.336341   1.692794 C.3        1 UNL1     0.1889
     2 C         -0.469106   -0.973653   0.188419 C.3        1 UNL1     0.1342
     3 C         -1.908135   -0.948989   -0.349216 C.3        1 UNL1     0.1174
     4 C         -2.803071   -2.006633   0.301627 C.3        1 UNL1     0.1456
     5 C         -2.65648   -2.042027   1.833822 C.3        1 UNL1     0.2326
     6 O         -1.294078   -2.270656   2.186608 O.3        1 UNL1     -0.3076
     7 O         -3.226357   -0.895329   2.490818 O.3        1 UNL1     -0.4605
     8 C         -3.741654   -1.115213   3.75559 C.ar        1 UNL1     0.1310
     9 C         -4.565943   -2.185283   4.120007 C.ar        1 UNL1     0.0226
     10 C         -5.024183   -2.330756   5.434828 C.ar        1 UNL1     0.1343
     11 C         -4.649427   -1.42189   6.423445 C.ar        1 UNL1     0.1007
     12 C         -3.860188   -0.326524   6.062809 C.ar        1 UNL1     0.1389
     13 C         -3.401727   -0.179022   4.740128 C.ar        1 UNL1     0.0229
     14 C         -5.035759   -1.573909   7.845342 C.2        1 UNL1     0.1740
     15 C         -4.364094   -0.635629   8.804532 C.3        1 UNL1     0.0520
     16 C         -4.284031   0.739819   8.156698 C.3        1 UNL1     0.1322
     17 O         -3.521717   0.685616   6.930725 O.3        1 UNL1     -0.4828
     18 C         -5.638499   1.441487   8.030982 C.ar        1 UNL1     -0.0067
     19 C         -6.00874   2.016549   6.797921 C.ar        1 UNL1     -0.0516
     20 C         -7.219253   2.706537   6.661767 C.ar        1 UNL1     -0.0198
     21 C         -8.06293   2.83446   7.750652 C.ar        1 UNL1     0.1169
     22 C         -7.741466   2.250424   8.969013 C.ar        1 UNL1     -0.0198
     23 C         -6.539573   1.544574   9.100484 C.ar        1 UNL1     -0.0516
     24 O         -9.215634   3.545768   7.5903 O.3        1 UNL1     -0.5068
     25 O         -5.791418   -2.453361   8.250345 O.2        1 UNL1     -0.2917
     26 O         -5.82615   -3.395851   5.72467 O.3        1 UNL1     -0.5058
     27 O         -0.235905   -0.203816   2.540224 O.3        1 UNL1     -0.3648
     28 O         0.257754   -1.952057   -0.577809 O.3        1 UNL1     -0.3841
     29 O         -2.457651   0.367597   -0.266961 O.3        1 UNL1     -0.3863
     30 O         -2.461948   -3.306437   -0.227367 O.3        1 UNL1     -0.3829
     31 H         0.611475   -1.855876   1.81178 H        1 UNL1     0.0937
     32 H         0.0   0.0   0.0 H        1 UNL1     0.0671
     33 H         -1.869211   -1.18238   -1.422405 H        1 UNL1     0.0649
     34 H         -3.851248   -1.820239   0.042813 H        1 UNL1     0.0683
     35 H         -3.217713   -2.936226   2.132659 H        1 UNL1     0.1085
     36 H         -4.846892   -2.955963   3.410612 H        1 UNL1     0.0691
     37 H         -2.789419   0.68316   4.484756 H        1 UNL1     0.0691
     38 H         -3.364901   -1.033283   9.011926 H        1 UNL1     0.0385
     39 H         -4.92726   -0.618736   9.74386 H        1 UNL1     0.0385
     40 H         -3.687288   1.377262   8.823094 H        1 UNL1     0.0789
     41 H         -5.359667   1.937894   5.930645 H        1 UNL1     0.0623
     42 H         -7.487996   3.155767   5.708886 H        1 UNL1     0.0654
     43 H         -8.401874   2.331624   9.824102 H        1 UNL1     0.0654
     44 H         -6.325329   1.092108   10.063925 H        1 UNL1     0.0623
     45 H         -8.982767   4.456178   7.346079 H        1 UNL1     0.2921
     46 H         -5.428574   -3.914464   6.441877 H        1 UNL1     0.2922
     47 H         0.50885   0.34908   2.265441 H        1 UNL1     0.2126
     48 H         1.19347   -1.880027   -0.307662 H        1 UNL1     0.2101
     49 H         -2.018995   0.948953   -0.908365 H        1 UNL1     0.2100
     50 H         -2.697509   -3.316278   -1.178223 H        1 UNL1     0.2102
@<TRIPOS>BOND
     1     1     2    1
     2     1     6    1
     3     2     3    1
     4     3     4    1
     5     3    29    1
     6     3    33    1
     7     4     5    1
     8     5     6    1
     9     5     7    1
    10     5    35    1
    11     7     8    1
    12     8     9   ar
    13     8    13   ar
    14     9    10   ar
    15     9    36    1
    16    10    11   ar
    17    10    26    1
    18    11    12   ar
    19    11    14    1
    20    12    13   ar
    21    12    17    1
    22    13    37    1
    23    14    15    1
    24    14    25    2
    25    15    16    1
    26    15    38    1
    27    15    39    1
    28    16    17    1
    29    16    18    1
    30    16    40    1
    31    18    19   ar
    32    18    23   ar
    33    19    20   ar
    34    19    41    1
    35    20    21   ar
    36    20    42    1
    37    21    22   ar
    38    21    24    1
    39    22    23   ar
    40    22    43    1
    41    23    44    1
    42    24    45    1
    43    26    46    1
    44    27    47    1
    45    28    48    1
    46    29    49    1
    47    30    50    1
    48     1    31    1
    49     1    27    1
    50     2    32    1
    51     2    28    1
    52     4    34    1
    53     4    30    1
