@<TRIPOS>MOLECULE
*****
 50 53 0 0 0
SMALL
GASTEIGER

@<TRIPOS>ATOM
     1 C         -0.31748   -1.374951   1.667189 C.3        1 UNL1     0.1889
     2 C         -0.460271   -0.9808   0.172467 C.3        1 UNL1     0.1342
     3 C         -1.905353   -0.954783   -0.348614 C.3        1 UNL1     0.1174
     4 C         -2.785673   -2.03255   0.289017 C.3        1 UNL1     0.1456
     5 C         -2.62173   -2.099926   1.818379 C.3        1 UNL1     0.2326
     6 O         -1.253933   -2.326416   2.151097 O.3        1 UNL1     -0.3076
     7 O         -3.192096   -0.971741   2.506275 O.3        1 UNL1     -0.4605
     8 C         -3.701926   -1.224888   3.767036 C.ar        1 UNL1     0.1310
     9 C         -4.519137   -2.307971   4.108204 C.ar        1 UNL1     0.0226
     10 C         -4.97215   -2.48762   5.420609 C.ar        1 UNL1     0.1343
     11 C         -4.599028   -1.600784   6.42964 C.ar        1 UNL1     0.1007
     12 C         -3.81699   -0.492696   6.092976 C.ar        1 UNL1     0.1389
     13 C         -3.363794   -0.310829   4.772761 C.ar        1 UNL1     0.0229
     14 C         -4.979736   -1.789159   7.848699 C.2        1 UNL1     0.1740
     15 C         -4.30997   -0.870566   8.828062 C.3        1 UNL1     0.0520
     16 C         -4.239588   0.520516   8.213332 C.3        1 UNL1     0.1322
     17 O         -3.481121   0.50009   6.98395 O.3        1 UNL1     -0.4828
     18 C         -5.598276   1.217507   8.108956 C.ar        1 UNL1     -0.0067
     19 C         -6.774705   0.483246   8.364082 C.ar        1 UNL1     -0.0516
     20 C         -8.035343   1.077509   8.231394 C.ar        1 UNL1     -0.0198
     21 C         -8.13296   2.40021   7.837997 C.ar        1 UNL1     0.1169
     22 C         -6.991696   3.158701   7.612063 C.ar        1 UNL1     -0.0198
     23 C         -5.730464   2.569891   7.762576 C.ar        1 UNL1     -0.0516
     24 O         -9.378434   2.934135   7.682696 O.3        1 UNL1     -0.5068
     25 O         -5.729222   -2.682282   8.234817 O.2        1 UNL1     -0.2917
     26 O         -5.767318   -3.563809   5.687272 O.3        1 UNL1     -0.5058
     27 O         -0.206101   -0.260208   2.537666 O.3        1 UNL1     -0.3648
     28 O         0.264688   -1.937263   -0.622718 O.3        1 UNL1     -0.3841
     29 O         -2.462948   0.355783   -0.231837 O.3        1 UNL1     -0.3863
     30 O         -2.441559   -3.318188   -0.271706 O.3        1 UNL1     -0.3829
     31 H         0.644419   -1.890112   1.764349 H        1 UNL1     0.0937
     32 H         0.0   0.0   0.0 H        1 UNL1     0.0671
     33 H         -1.876821   -1.164699   -1.426965 H        1 UNL1     0.0649
     34 H         -3.837932   -1.848077   0.045866 H        1 UNL1     0.0683
     35 H         -3.173432   -3.004329   2.103966 H        1 UNL1     0.1085
     36 H         -4.798269   -3.062874   3.381341 H        1 UNL1     0.0691
     37 H         -2.757059   0.560631   4.536278 H        1 UNL1     0.0691
     38 H         -3.307932   -1.26757   9.022573 H        1 UNL1     0.0385
     39 H         -4.870055   -0.87943   9.76934 H        1 UNL1     0.0385
     40 H         -3.644088   1.145005   8.892974 H        1 UNL1     0.0789
     41 H         -6.725117   -0.559079   8.665331 H        1 UNL1     0.0623
     42 H         -8.935434   0.497428   8.41942 H        1 UNL1     0.0654
     43 H         -7.056348   4.199549   7.318185 H        1 UNL1     0.0654
     44 H         -4.860009   3.194994   7.588221 H        1 UNL1     0.0623
     45 H         -9.676453   3.272535   8.542572 H        1 UNL1     0.2921
     46 H         -5.535623   -3.930059   6.555368 H        1 UNL1     0.2922
     47 H         -1.083914   0.036826   2.815288 H        1 UNL1     0.2126
     48 H         -0.2945   -2.137636   -1.39789 H        1 UNL1     0.2101
     49 H         -3.005054   0.413443   0.571027 H        1 UNL1     0.2100
     50 H         -1.887423   -3.793474   0.381555 H        1 UNL1     0.2102
@<TRIPOS>BOND
     1     1     2    1
     2     1     6    1
     3     2     3    1
     4     3     4    1
     5     3    29    1
     6     3    33    1
     7     4     5    1
     8     5     6    1
     9     5     7    1
    10     5    35    1
    11     7     8    1
    12     8     9   ar
    13     8    13   ar
    14     9    10   ar
    15     9    36    1
    16    10    11   ar
    17    10    26    1
    18    11    12   ar
    19    11    14    1
    20    12    13   ar
    21    12    17    1
    22    13    37    1
    23    14    15    1
    24    14    25    2
    25    15    16    1
    26    15    38    1
    27    15    39    1
    28    16    17    1
    29    16    18    1
    30    16    40    1
    31    18    19   ar
    32    18    23   ar
    33    19    20   ar
    34    19    41    1
    35    20    21   ar
    36    20    42    1
    37    21    22   ar
    38    21    24    1
    39    22    23   ar
    40    22    43    1
    41    23    44    1
    42    24    45    1
    43    26    46    1
    44    27    47    1
    45    28    48    1
    46    29    49    1
    47    30    50    1
    48     1    31    1
    49     1    27    1
    50     2    32    1
    51     2    28    1
    52     4    34    1
    53     4    30    1
