@<TRIPOS>MOLECULE
*****
 50 53 0 0 0
SMALL
GASTEIGER

@<TRIPOS>ATOM
     1 C         -0.372293   -1.399987   1.634698 C.3        1 UNL1     0.1889
     2 C         -0.486627   -0.972219   0.146786 C.3        1 UNL1     0.1342
     3 C         -1.924019   -0.899385   -0.390861 C.3        1 UNL1     0.1174
     4 C         -2.838732   -1.967381   0.213953 C.3        1 UNL1     0.1456
     5 C         -2.695561   -2.069776   1.743457 C.3        1 UNL1     0.2326
     6 O         -1.338064   -2.337228   2.087755 O.3        1 UNL1     -0.3076
     7 O         -3.246214   -0.941768   2.447516 O.3        1 UNL1     -0.4605
     8 C         -3.777832   -1.207483   3.696638 C.ar        1 UNL1     0.1310
     9 C         -4.620336   -2.280334   4.007246 C.ar        1 UNL1     0.0226
     10 C         -5.09443   -2.474613   5.310087 C.ar        1 UNL1     0.1343
     11 C         -4.717932   -1.613487   6.339917 C.ar        1 UNL1     0.1007
     12 C         -3.91017   -0.515034   6.033804 C.ar        1 UNL1     0.1389
     13 C         -3.435744   -0.3184   4.723199 C.ar        1 UNL1     0.0229
     14 C         -5.121353   -1.819816   7.750177 C.2        1 UNL1     0.1740
     15 C         -4.447279   -0.93221   8.754831 C.3        1 UNL1     0.0520
     16 C         -4.341753   0.468037   8.166504 C.3        1 UNL1     0.1322
     17 O         -3.567274   0.454852   6.947046 O.3        1 UNL1     -0.4828
     18 C         -5.685198   1.193211   8.056952 C.ar        1 UNL1     -0.0067
     19 C         -5.780775   2.35888   7.269363 C.ar        1 UNL1     -0.0516
     20 C         -6.982191   3.072711   7.185644 C.ar        1 UNL1     -0.0198
     21 C         -8.090636   2.636294   7.889004 C.ar        1 UNL1     0.1169
     22 C         -8.036965   1.473401   8.646393 C.ar        1 UNL1     -0.0198
     23 C         -6.84082   0.74917   8.715556 C.ar        1 UNL1     -0.0516
     24 O         -9.232664   3.378221   7.813385 O.3        1 UNL1     -0.5068
     25 O         -5.893091   -2.704904   8.110073 O.2        1 UNL1     -0.2917
     26 O         -5.913758   -3.539666   5.546624 O.3        1 UNL1     -0.5058
     27 O         -0.244072   -0.306229   2.529147 O.3        1 UNL1     -0.3648
     28 O         0.224165   -1.930307   -0.659161 O.3        1 UNL1     -0.3841
     29 O         -2.450264   0.422141   -0.253863 O.3        1 UNL1     -0.3863
     30 O         -2.519741   -3.24965   -0.368902 O.3        1 UNL1     -0.3829
     31 H         0.575215   -1.941002   1.732733 H        1 UNL1     0.0937
     32 H         0.0   0.0   0.0 H        1 UNL1     0.0671
     33 H         -1.887297   -1.088094   -1.472878 H        1 UNL1     0.0649
     34 H         -3.882971   -1.75166   -0.0379 H        1 UNL1     0.0683
     35 H         -3.273091   -2.96563   2.003808 H        1 UNL1     0.1085
     36 H         -4.904137   -3.016473   3.263152 H        1 UNL1     0.0691
     37 H         -2.809158   0.545137   4.510627 H        1 UNL1     0.0691
     38 H         -3.455813   -1.35215   8.95526 H        1 UNL1     0.0385
     39 H         -5.020103   -0.947013   9.688337 H        1 UNL1     0.0385
     40 H         -3.74355   1.068472   8.865182 H        1 UNL1     0.0789
     41 H         -4.922454   2.727161   6.715012 H        1 UNL1     0.0623
     42 H         -7.039937   3.97672   6.584442 H        1 UNL1     0.0654
     43 H         -8.903239   1.114379   9.189148 H        1 UNL1     0.0654
     44 H         -6.837726   -0.160545   9.308224 H        1 UNL1     0.0623
     45 H         -9.065501   4.241351   8.225429 H        1 UNL1     0.2921
     46 H         -5.542065   -4.081494   6.260542 H        1 UNL1     0.2922
     47 H         0.500793   0.25353   2.268943 H        1 UNL1     0.2126
     48 H         1.175727   -1.777007   -0.501804 H        1 UNL1     0.2101
     49 H         -2.13381   0.980479   -0.981811 H        1 UNL1     0.2100
     50 H         -2.774683   -3.222869   -1.314418 H        1 UNL1     0.2102
@<TRIPOS>BOND
     1     1     2    1
     2     1     6    1
     3     2     3    1
     4     3     4    1
     5     3    29    1
     6     3    33    1
     7     4     5    1
     8     5     6    1
     9     5     7    1
    10     5    35    1
    11     7     8    1
    12     8     9   ar
    13     8    13   ar
    14     9    10   ar
    15     9    36    1
    16    10    11   ar
    17    10    26    1
    18    11    12   ar
    19    11    14    1
    20    12    13   ar
    21    12    17    1
    22    13    37    1
    23    14    15    1
    24    14    25    2
    25    15    16    1
    26    15    38    1
    27    15    39    1
    28    16    17    1
    29    16    18    1
    30    16    40    1
    31    18    19   ar
    32    18    23   ar
    33    19    20   ar
    34    19    41    1
    35    20    21   ar
    36    20    42    1
    37    21    22   ar
    38    21    24    1
    39    22    23   ar
    40    22    43    1
    41    23    44    1
    42    24    45    1
    43    26    46    1
    44    27    47    1
    45    28    48    1
    46    29    49    1
    47    30    50    1
    48     1    31    1
    49     1    27    1
    50     2    32    1
    51     2    28    1
    52     4    34    1
    53     4    30    1
