@<TRIPOS>MOLECULE
*****
 50 53 0 0 0
SMALL
GASTEIGER

@<TRIPOS>ATOM
     1 C         -1.139738   0.673321   -1.737366 C.3        1 UNL1     0.1889
     2 C         -0.797236   0.719605   -0.223929 C.3        1 UNL1     0.1342
     3 C         -1.98739   0.456013   0.711227 C.3        1 UNL1     0.1174
     4 C         -3.305449   1.010689   0.165173 C.3        1 UNL1     0.1456
     5 C         -3.523478   0.661031   -1.318258 C.3        1 UNL1     0.2326
     6 O         -2.430671   1.142991   -2.096947 O.3        1 UNL1     -0.3076
     7 O         -3.807685   -0.731805   -1.543102 O.3        1 UNL1     -0.4605
     8 C         -5.00878   -1.011995   -2.169514 C.ar        1 UNL1     0.1310
     9 C         -6.168957   -1.464609   -1.531994 C.ar        1 UNL1     0.0226
     10 C         -7.344515   -1.70451   -2.253391 C.ar        1 UNL1     0.1343
     11 C         -7.395319   -1.474613   -3.627584 C.ar        1 UNL1     0.1007
     12 C         -6.231518   -1.061882   -4.281804 C.ar        1 UNL1     0.1389
     13 C         -5.048886   -0.823267   -3.55663 C.ar        1 UNL1     0.0229
     14 C         -8.633751   -1.631193   -4.425031 C.2        1 UNL1     0.1740
     15 C         -8.56433   -1.129316   -5.837422 C.3        1 UNL1     0.0520
     16 C         -7.206851   -1.504368   -6.415821 C.3        1 UNL1     0.1322
     17 O         -6.139199   -0.909199   -5.64578 O.3        1 UNL1     -0.4828
     18 C         -7.041219   -3.003397   -6.676977 C.ar        1 UNL1     -0.0067
     19 C         -8.041035   -3.696858   -7.389503 C.ar        1 UNL1     -0.0516
     20 C         -7.943687   -5.076795   -7.604585 C.ar        1 UNL1     -0.0198
     21 C         -6.857571   -5.77435   -7.106995 C.ar        1 UNL1     0.1169
     22 C         -5.840361   -5.113818   -6.430371 C.ar        1 UNL1     -0.0198
     23 C         -5.928364   -3.730844   -6.23114 C.ar        1 UNL1     -0.0516
     24 O         -6.815704   -7.123471   -7.303261 O.3        1 UNL1     -0.5068
     25 O         -9.685471   -2.065166   -3.962387 O.2        1 UNL1     -0.2917
     26 O         -8.441061   -2.146131   -1.572111 O.3        1 UNL1     -0.5058
     27 O         -0.848643   -0.575229   -2.344963 O.3        1 UNL1     -0.3648
     28 O         -0.288686   2.029681   0.088774 O.3        1 UNL1     -0.3841
     29 O         -2.06841   -0.929785   1.050536 O.3        1 UNL1     -0.3863
     30 O         -3.3104   2.447708   0.308844 O.3        1 UNL1     -0.3829
     31 H         -0.463507   1.378508   -2.232846 H        1 UNL1     0.0937
     32 H         0.0   0.0   0.0 H        1 UNL1     0.0671
     33 H         -1.791382   0.977379   1.65858 H        1 UNL1     0.0649
     34 H         -4.145499   0.626735   0.754491 H        1 UNL1     0.0683
     35 H         -4.403034   1.252032   -1.602823 H        1 UNL1     0.1085
     36 H         -6.210081   -1.608882   -0.457929 H        1 UNL1     0.0691
     37 H         -4.15606   -0.503487   -4.089636 H        1 UNL1     0.0691
     38 H         -8.695028   -0.042274   -5.809423 H        1 UNL1     0.0385
     39 H         -9.392151   -1.55867   -6.412006 H        1 UNL1     0.0385
     40 H         -7.132487   -1.027539   -7.402545 H        1 UNL1     0.0789
     41 H         -8.907975   -3.173649   -7.782335 H        1 UNL1     0.0623
     42 H         -8.727061   -5.602177   -8.145242 H        1 UNL1     0.0654
     43 H         -4.978014   -5.647898   -6.049547 H        1 UNL1     0.0654
     44 H         -5.110375   -3.245515   -5.707504 H        1 UNL1     0.0623
     45 H         -7.590146   -7.381058   -7.829195 H        1 UNL1     0.2921
     46 H         -9.025534   -2.628776   -2.177798 H        1 UNL1     0.2922
     47 H         0.103992   -0.663933   -2.488068 H        1 UNL1     0.2126
     48 H         -0.961602   2.465071   0.646763 H        1 UNL1     0.2101
     49 H         -2.448494   -1.429124   0.310272 H        1 UNL1     0.2100
     50 H         -3.605438   2.834708   -0.541389 H        1 UNL1     0.2102
@<TRIPOS>BOND
     1     1     2    1
     2     1     6    1
     3     2     3    1
     4     3     4    1
     5     3    29    1
     6     3    33    1
     7     4     5    1
     8     5     6    1
     9     5     7    1
    10     5    35    1
    11     7     8    1
    12     8     9   ar
    13     8    13   ar
    14     9    10   ar
    15     9    36    1
    16    10    11   ar
    17    10    26    1
    18    11    12   ar
    19    11    14    1
    20    12    13   ar
    21    12    17    1
    22    13    37    1
    23    14    15    1
    24    14    25    2
    25    15    16    1
    26    15    38    1
    27    15    39    1
    28    16    17    1
    29    16    18    1
    30    16    40    1
    31    18    19   ar
    32    18    23   ar
    33    19    20   ar
    34    19    41    1
    35    20    21   ar
    36    20    42    1
    37    21    22   ar
    38    21    24    1
    39    22    23   ar
    40    22    43    1
    41    23    44    1
    42    24    45    1
    43    26    46    1
    44    27    47    1
    45    28    48    1
    46    29    49    1
    47    30    50    1
    48     1    31    1
    49     1    27    1
    50     2    32    1
    51     2    28    1
    52     4    34    1
    53     4    30    1
