@<TRIPOS>MOLECULE
*****
 50 53 0 0 0
SMALL
GASTEIGER

@<TRIPOS>ATOM
     1 C         -0.319347   -1.322261   1.708932 C.3        1 UNL1     0.1889
     2 C         -0.455714   -0.97739   0.201481 C.3        1 UNL1     0.1342
     3 C         -1.897883   -0.97663   -0.328249 C.3        1 UNL1     0.1174
     4 C         -2.775775   -2.038374   0.338926 C.3        1 UNL1     0.1456
     5 C         -2.620302   -2.055404   1.87056 C.3        1 UNL1     0.2326
     6 O         -1.253194   -2.263058   2.218073 O.3        1 UNL1     -0.3076
     7 O         -3.200998   -0.908951   2.518449 O.3        1 UNL1     -0.4605
     8 C         -3.706493   -1.121657   3.788393 C.ar        1 UNL1     0.1310
     9 C         -4.515167   -2.198023   4.168899 C.ar        1 UNL1     0.0226
     10 C         -4.964275   -2.33507   5.48777 C.ar        1 UNL1     0.1343
     11 C         -4.595594   -1.410958   6.464464 C.ar        1 UNL1     0.1007
     12 C         -3.822265   -0.309699   6.087668 C.ar        1 UNL1     0.1389
     13 C         -3.373005   -0.170706   4.760914 C.ar        1 UNL1     0.0229
     14 C         -4.972127   -1.55249   7.890068 C.2        1 UNL1     0.1740
     15 C         -4.307099   -0.59555   8.835346 C.3        1 UNL1     0.0520
     16 C         -4.248004   0.773734   8.172379 C.3        1 UNL1     0.1322
     17 O         -3.491836   0.715915   6.94277 O.3        1 UNL1     -0.4828
     18 C         -5.611906   1.456909   8.04681 C.ar        1 UNL1     -0.0067
     19 C         -5.996568   2.013122   6.809525 C.ar        1 UNL1     -0.0516
     20 C         -7.216444   2.686301   6.672788 C.ar        1 UNL1     -0.0198
     21 C         -8.055272   2.816127   7.765189 C.ar        1 UNL1     0.1169
     22 C         -7.719355   2.250163   8.98817 C.ar        1 UNL1     -0.0198
     23 C         -6.507926   1.560963   9.120456 C.ar        1 UNL1     -0.0516
     24 O         -9.217754   3.51107   7.603666 O.3        1 UNL1     -0.5068
     25 O         -5.714364   -2.436964   8.308728 O.2        1 UNL1     -0.2917
     26 O         -5.751103   -3.406984   5.793526 O.3        1 UNL1     -0.5058
     27 O         -0.219301   -0.179376   2.543553 O.3        1 UNL1     -0.3648
     28 O         0.279221   -1.954774   -0.55832 O.3        1 UNL1     -0.3841
     29 O         -2.463536   0.333748   -0.256994 O.3        1 UNL1     -0.3863
     30 O         -2.421169   -3.339409   -0.178038 O.3        1 UNL1     -0.3829
     31 H         0.644868   -1.8284   1.828066 H        1 UNL1     0.0937
     32 H         0.0   0.0   0.0 H        1 UNL1     0.0671
     33 H         -1.861929   -1.221066   -1.39908 H        1 UNL1     0.0649
     34 H         -3.827635   -1.867983   0.084057 H        1 UNL1     0.0683
     35 H         -3.16853   -2.95332   2.182121 H        1 UNL1     0.1085
     36 H         -4.790259   -2.979778   3.469395 H        1 UNL1     0.0691
     37 H         -2.773063   0.69631   4.49287 H        1 UNL1     0.0691
     38 H         -3.301831   -0.978343   9.041339 H        1 UNL1     0.0385
     39 H         -4.865246   -0.57562   9.777606 H        1 UNL1     0.0385
     40 H         -3.6557   1.42578   8.828529 H        1 UNL1     0.0789
     41 H         -5.351647   1.932661   5.939322 H        1 UNL1     0.0623
     42 H         -7.496394   3.121182   5.716484 H        1 UNL1     0.0654
     43 H         -8.375713   2.332887   9.846226 H        1 UNL1     0.0654
     44 H         -6.282367   1.122285   10.087684 H        1 UNL1     0.0623
     45 H         -8.998023   4.419184   7.339538 H        1 UNL1     0.2921
     46 H         -5.342274   -3.913668   6.51293 H        1 UNL1     0.2922
     47 H         0.519441   0.377764   2.261215 H        1 UNL1     0.2126
     48 H         1.212377   -1.881637   -0.279747 H        1 UNL1     0.2101
     49 H         -2.029961   0.915835   -0.901184 H        1 UNL1     0.2100
     50 H         -2.656623   -3.360507   -1.128737 H        1 UNL1     0.2102
@<TRIPOS>BOND
     1     1     2    1
     2     1     6    1
     3     2     3    1
     4     3     4    1
     5     3    29    1
     6     3    33    1
     7     4     5    1
     8     5     6    1
     9     5     7    1
    10     5    35    1
    11     7     8    1
    12     8     9   ar
    13     8    13   ar
    14     9    10   ar
    15     9    36    1
    16    10    11   ar
    17    10    26    1
    18    11    12   ar
    19    11    14    1
    20    12    13   ar
    21    12    17    1
    22    13    37    1
    23    14    15    1
    24    14    25    2
    25    15    16    1
    26    15    38    1
    27    15    39    1
    28    16    17    1
    29    16    18    1
    30    16    40    1
    31    18    19   ar
    32    18    23   ar
    33    19    20   ar
    34    19    41    1
    35    20    21   ar
    36    20    42    1
    37    21    22   ar
    38    21    24    1
    39    22    23   ar
    40    22    43    1
    41    23    44    1
    42    24    45    1
    43    26    46    1
    44    27    47    1
    45    28    48    1
    46    29    49    1
    47    30    50    1
    48     1    31    1
    49     1    27    1
    50     2    32    1
    51     2    28    1
    52     4    34    1
    53     4    30    1
