@<TRIPOS>MOLECULE
*****
 50 53 0 0 0
SMALL
GASTEIGER

@<TRIPOS>ATOM
     1 C         0.741143   1.97794   -0.556115 C.3        1 UNL1     0.1889
     2 C         0.944451   0.457069   -0.320408 C.3        1 UNL1     0.1342
     3 C         2.041173   0.106808   0.696933 C.3        1 UNL1     0.1174
     4 C         3.220656   1.081678   0.657353 C.3        1 UNL1     0.1456
     5 C         2.769361   2.553441   0.632644 C.3        1 UNL1     0.2326
     6 O         1.910716   2.779892   -0.482845 O.3        1 UNL1     -0.3076
     7 O         2.207396   3.00169   1.879475 O.3        1 UNL1     -0.4605
     8 C         2.212969   4.368833   2.09023 C.ar        1 UNL1     0.1310
     9 C         2.274717   5.343005   1.087994 C.ar        1 UNL1     0.0226
     10 C         2.257552   6.70707   1.402532 C.ar        1 UNL1     0.1343
     11 C         2.154105   7.130497   2.726862 C.ar        1 UNL1     0.1007
     12 C         2.133147   6.167265   3.739052 C.ar        1 UNL1     0.1389
     13 C         2.153086   4.795789   3.422687 C.ar        1 UNL1     0.0229
     14 C         2.047413   8.55734   3.110125 C.2        1 UNL1     0.1740
     15 C         1.719167   8.819921   4.55056 C.3        1 UNL1     0.0520
     16 C         2.498162   7.83357   5.409768 C.3        1 UNL1     0.1322
     17 O         2.141179   6.473047   5.080208 O.3        1 UNL1     -0.4828
     18 C         4.004383   8.103271   5.445602 C.ar        1 UNL1     -0.0067
     19 C         4.644053   8.613686   4.297338 C.ar        1 UNL1     -0.0516
     20 C         6.027593   8.827016   4.280828 C.ar        1 UNL1     -0.0198
     21 C         6.781928   8.527646   5.401178 C.ar        1 UNL1     0.1169
     22 C         6.176137   8.055319   6.558228 C.ar        1 UNL1     -0.0198
     23 C         4.790096   7.859312   6.581179 C.ar        1 UNL1     -0.0516
     24 O         8.131669   8.712722   5.335258 O.3        1 UNL1     -0.5068
     25 O         2.137033   9.481803   2.306495 O.2        1 UNL1     -0.2917
     26 O         2.321691   7.606391   0.378475 O.3        1 UNL1     -0.5058
     27 O         -0.321448   2.530794   0.204174 O.3        1 UNL1     -0.3648
     28 O         1.310178   -0.15356   -1.57184 O.3        1 UNL1     -0.3841
     29 O         1.48922   -0.041213   2.006731 O.3        1 UNL1     -0.3863
     30 O         4.01277   0.819299   -0.521376 O.3        1 UNL1     -0.3829
     31 H         0.41673   2.092697   -1.596146 H        1 UNL1     0.0937
     32 H         0.0   0.0   0.0 H        1 UNL1     0.0671
     33 H         2.438464   -0.883547   0.434105 H        1 UNL1     0.0649
     34 H         3.870944   0.917298   1.523671 H        1 UNL1     0.0683
     35 H         3.694883   3.110733   0.441036 H        1 UNL1     0.1085
     36 H         2.299918   5.078563   0.03654 H        1 UNL1     0.0691
     37 H         2.136947   4.065826   4.229153 H        1 UNL1     0.0691
     38 H         0.6394   8.684475   4.674189 H        1 UNL1     0.0385
     39 H         1.963034   9.860503   4.790346 H        1 UNL1     0.0385
     40 H         2.154808   7.964449   6.4449 H        1 UNL1     0.0789
     41 H         4.075466   8.847985   3.402093 H        1 UNL1     0.0623
     42 H         6.510826   9.209818   3.385306 H        1 UNL1     0.0654
     43 H         6.755351   7.831864   7.446197 H        1 UNL1     0.0654
     44 H         4.348755   7.49909   7.505464 H        1 UNL1     0.0623
     45 H         8.528437   7.93083   4.9182 H        1 UNL1     0.2921
     46 H         2.591245   7.151576   -0.435094 H        1 UNL1     0.2922
     47 H         -0.069176   2.593408   1.135999 H        1 UNL1     0.2126
     48 H         0.854044   -1.016413   -1.605883 H        1 UNL1     0.2101
     49 H         0.522249   -0.102871   1.952332 H        1 UNL1     0.2100
     50 H         3.575947   0.101109   -1.024468 H        1 UNL1     0.2102
@<TRIPOS>BOND
     1     1     2    1
     2     1     6    1
     3     2     3    1
     4     3     4    1
     5     3    29    1
     6     3    33    1
     7     4     5    1
     8     5     6    1
     9     5     7    1
    10     5    35    1
    11     7     8    1
    12     8     9   ar
    13     8    13   ar
    14     9    10   ar
    15     9    36    1
    16    10    11   ar
    17    10    26    1
    18    11    12   ar
    19    11    14    1
    20    12    13   ar
    21    12    17    1
    22    13    37    1
    23    14    15    1
    24    14    25    2
    25    15    16    1
    26    15    38    1
    27    15    39    1
    28    16    17    1
    29    16    18    1
    30    16    40    1
    31    18    19   ar
    32    18    23   ar
    33    19    20   ar
    34    19    41    1
    35    20    21   ar
    36    20    42    1
    37    21    22   ar
    38    21    24    1
    39    22    23   ar
    40    22    43    1
    41    23    44    1
    42    24    45    1
    43    26    46    1
    44    27    47    1
    45    28    48    1
    46    29    49    1
    47    30    50    1
    48     1    31    1
    49     1    27    1
    50     2    32    1
    51     2    28    1
    52     4    34    1
    53     4    30    1
