@<TRIPOS>MOLECULE
*****
 50 53 0 0 0
SMALL
GASTEIGER

@<TRIPOS>ATOM
     1 C         -0.248295   -1.392403   1.664442 C.3        1 UNL1     0.1889
     2 C         -0.442071   -0.988121   0.178189 C.3        1 UNL1     0.1342
     3 C         -1.902716   -0.976892   -0.298103 C.3        1 UNL1     0.1174
     4 C         -2.749043   -2.071238   0.357072 C.3        1 UNL1     0.1456
     5 C         -2.537271   -2.148786   1.880063 C.3        1 UNL1     0.2326
     6 O         -1.15708   -2.359961   2.168761 O.3        1 UNL1     -0.3076
     7 O         -3.100691   -1.033775   2.594647 O.3        1 UNL1     -0.4605
     8 C         -3.118424   0.17297   1.918645 C.ar        1 UNL1     0.1310
     9 C         -2.049276   0.712353   1.195257 C.ar        1 UNL1     0.0226
     10 C         -2.171318   1.937299   0.528537 C.ar        1 UNL1     0.1343
     11 C         -3.374271   2.641792   0.549334 C.ar        1 UNL1     0.1007
     12 C         -4.436081   2.133366   1.302226 C.ar        1 UNL1     0.1389
     13 C         -4.312276   0.902967   1.974699 C.ar        1 UNL1     0.0229
     14 C         -3.584702   3.898493   -0.206031 C.2        1 UNL1     0.1740
     15 C         -4.998215   4.399988   -0.251138 C.3        1 UNL1     0.0520
     16 C         -5.626   4.195465   1.120726 C.3        1 UNL1     0.1322
     17 O         -5.628224   2.796232   1.480188 O.3        1 UNL1     -0.4828
     18 C         -5.066907   5.126596   2.199213 C.ar        1 UNL1     -0.0067
     19 C         -4.663847   4.587764   3.438332 C.ar        1 UNL1     -0.0516
     20 C         -4.192594   5.417091   4.463076 C.ar        1 UNL1     -0.0198
     21 C         -4.126684   6.78454   4.264164 C.ar        1 UNL1     0.1169
     22 C         -4.484843   7.341416   3.043324 C.ar        1 UNL1     -0.0198
     23 C         -4.938701   6.510408   2.012066 C.ar        1 UNL1     -0.0516
     24 O         -3.698375   7.564325   5.298035 O.3        1 UNL1     -0.5068
     25 O         -2.694313   4.469098   -0.830612 O.2        1 UNL1     -0.2917
     26 O         -1.090739   2.40876   -0.158239 O.3        1 UNL1     -0.5058
     27 O         -0.124559   -0.283349   2.540498 O.3        1 UNL1     -0.3648
     28 O         0.270342   -1.928534   -0.646915 O.3        1 UNL1     -0.3841
     29 O         -2.473295   0.325251   -0.153199 O.3        1 UNL1     -0.3863
     30 O         -2.405807   -3.347681   -0.224799 O.3        1 UNL1     -0.3829
     31 H         0.722695   -1.895648   1.727702 H        1 UNL1     0.0937
     32 H         0.0   0.0   0.0 H        1 UNL1     0.0671
     33 H         -1.904672   -1.177711   -1.37856 H        1 UNL1     0.0649
     34 H         -3.810574   -1.898651   0.147866 H        1 UNL1     0.0683
     35 H         -3.068227   -3.062632   2.174766 H        1 UNL1     0.1085
     36 H         -1.106132   0.186594   1.094379 H        1 UNL1     0.0691
     37 H         -5.153294   0.529418   2.55491 H        1 UNL1     0.0691
     38 H         -5.529033   3.825773   -1.017972 H        1 UNL1     0.0385
     39 H         -4.99602   5.453014   -0.552651 H        1 UNL1     0.0385
     40 H         -6.688942   4.458   1.03269 H        1 UNL1     0.0789
     41 H         -4.714612   3.51858   3.622502 H        1 UNL1     0.0623
     42 H         -3.895996   4.990796   5.418227 H        1 UNL1     0.0654
     43 H         -4.422916   8.409415   2.871703 H        1 UNL1     0.0654
     44 H         -5.200076   6.978324   1.06783 H        1 UNL1     0.0623
     45 H         -2.899276   8.037494   5.014716 H        1 UNL1     0.2921
     46 H         -1.337079   2.560549   -1.084353 H        1 UNL1     0.2922
     47 H         0.600027   0.290175   2.254309 H        1 UNL1     0.2126
     48 H         1.212507   -1.86041   -0.399091 H        1 UNL1     0.2101
     49 H         -2.067165   0.936089   -0.788596 H        1 UNL1     0.2100
     50 H         -2.675918   -3.332236   -1.166347 H        1 UNL1     0.2102
@<TRIPOS>BOND
     1     1     2    1
     2     1     6    1
     3     2     3    1
     4     3     4    1
     5     3    29    1
     6     3    33    1
     7     4     5    1
     8     5     6    1
     9     5     7    1
    10     5    35    1
    11     7     8    1
    12     8     9   ar
    13     8    13   ar
    14     9    10   ar
    15     9    36    1
    16    10    11   ar
    17    10    26    1
    18    11    12   ar
    19    11    14    1
    20    12    13   ar
    21    12    17    1
    22    13    37    1
    23    14    15    1
    24    14    25    2
    25    15    16    1
    26    15    38    1
    27    15    39    1
    28    16    17    1
    29    16    18    1
    30    16    40    1
    31    18    19   ar
    32    18    23   ar
    33    19    20   ar
    34    19    41    1
    35    20    21   ar
    36    20    42    1
    37    21    22   ar
    38    21    24    1
    39    22    23   ar
    40    22    43    1
    41    23    44    1
    42    24    45    1
    43    26    46    1
    44    27    47    1
    45    28    48    1
    46    29    49    1
    47    30    50    1
    48     1    31    1
    49     1    27    1
    50     2    32    1
    51     2    28    1
    52     4    34    1
    53     4    30    1
