@<TRIPOS>MOLECULE
*****
 50 53 0 0 0
SMALL
GASTEIGER

@<TRIPOS>ATOM
     1 C         -0.316382   -1.374956   1.667394 C.3        1 UNL1     0.1889
     2 C         -0.45981   -0.980977   0.172687 C.3        1 UNL1     0.1342
     3 C         -1.905068   -0.955598   -0.347936 C.3        1 UNL1     0.1174
     4 C         -2.78474   -2.03368   0.290055 C.3        1 UNL1     0.1456
     5 C         -2.620284   -2.100873   1.81937 C.3        1 UNL1     0.2326
     6 O         -1.252287   -2.326771   2.151671 O.3        1 UNL1     -0.3076
     7 O         -3.190898   -0.972871   2.507361 O.3        1 UNL1     -0.4605
     8 C         -3.700223   -1.226133   3.768303 C.ar        1 UNL1     0.1310
     9 C         -4.514038   -2.311423   4.110579 C.ar        1 UNL1     0.0226
     10 C         -4.966794   -2.490942   5.423091 C.ar        1 UNL1     0.1343
     11 C         -4.596769   -1.601697   6.431141 C.ar        1 UNL1     0.1007
     12 C         -3.818209   -0.491512   6.093331 C.ar        1 UNL1     0.1389
     13 C         -3.365275   -0.309782   4.773007 C.ar        1 UNL1     0.0229
     14 C         -4.97722   -1.789582   7.850335 C.2        1 UNL1     0.1740
     15 C         -4.310647   -0.867664   8.828751 C.3        1 UNL1     0.0520
     16 C         -4.244579   0.522895   8.21236 C.3        1 UNL1     0.1322
     17 O         -3.485748   0.503421   6.983187 O.3        1 UNL1     -0.4828
     18 C         -5.605472   1.215394   8.106814 C.ar        1 UNL1     -0.0067
     19 C         -5.737664   2.363079   7.298384 C.ar        1 UNL1     -0.0516
     20 C         -6.955985   3.047938   7.216992 C.ar        1 UNL1     -0.0198
     21 C         -8.045077   2.600457   7.943262 C.ar        1 UNL1     0.1169
     22 C         -7.955228   1.454016   8.722004 C.ar        1 UNL1     -0.0198
     23 C         -6.742126   0.75836   8.789113 C.ar        1 UNL1     -0.0516
     24 O         -9.204566   3.314893   7.868639 O.3        1 UNL1     -0.5068
     25 O         -5.72393   -2.684641   8.237348 O.2        1 UNL1     -0.2917
     26 O         -5.75857   -3.569356   5.690859 O.3        1 UNL1     -0.5058
     27 O         -0.205188   -0.2601   2.537751 O.3        1 UNL1     -0.3648
     28 O         0.265292   -1.937201   -0.622655 O.3        1 UNL1     -0.3841
     29 O         -2.463169   0.354746   -0.231083 O.3        1 UNL1     -0.3863
     30 O         -2.440272   -3.319219   -0.27068 O.3        1 UNL1     -0.3829
     31 H         0.64576   -1.889711   1.764288 H        1 UNL1     0.0937
     32 H         0.0   0.0   0.0 H        1 UNL1     0.0671
     33 H         -1.876791   -1.165583   -1.426281 H        1 UNL1     0.0649
     34 H         -3.837152   -1.849661   0.047224 H        1 UNL1     0.0683
     35 H         -3.171521   -3.005482   2.1052 H        1 UNL1     0.1085
     36 H         -4.790566   -3.068093   3.38456 H        1 UNL1     0.0691
     37 H         -2.761282   0.563335   4.53562 H        1 UNL1     0.0691
     38 H         -3.307388   -1.261215   9.023983 H        1 UNL1     0.0385
     39 H         -4.870932   -0.877191   9.769904 H        1 UNL1     0.0385
     40 H         -3.651254   1.150111   8.891393 H        1 UNL1     0.0789
     41 H         -4.895144   2.739725   6.725716 H        1 UNL1     0.0623
     42 H         -7.04201   3.938555   6.599407 H        1 UNL1     0.0654
     43 H         -8.806058   1.086221   9.283008 H        1 UNL1     0.0654
     44 H         -6.710715   -0.139355   9.399003 H        1 UNL1     0.0623
     45 H         -9.051797   4.189416   8.261816 H        1 UNL1     0.2921
     46 H         -5.365496   -4.088697   6.410018 H        1 UNL1     0.2922
     47 H         0.5219   0.312825   2.256753 H        1 UNL1     0.2126
     48 H         1.211119   -1.816857   -0.411326 H        1 UNL1     0.2101
     49 H         -2.036402   0.952947   -0.864975 H        1 UNL1     0.2100
     50 H         -2.707373   -3.318386   -1.213213 H        1 UNL1     0.2102
@<TRIPOS>BOND
     1     1     2    1
     2     1     6    1
     3     2     3    1
     4     3     4    1
     5     3    29    1
     6     3    33    1
     7     4     5    1
     8     5     6    1
     9     5     7    1
    10     5    35    1
    11     7     8    1
    12     8     9   ar
    13     8    13   ar
    14     9    10   ar
    15     9    36    1
    16    10    11   ar
    17    10    26    1
    18    11    12   ar
    19    11    14    1
    20    12    13   ar
    21    12    17    1
    22    13    37    1
    23    14    15    1
    24    14    25    2
    25    15    16    1
    26    15    38    1
    27    15    39    1
    28    16    17    1
    29    16    18    1
    30    16    40    1
    31    18    19   ar
    32    18    23   ar
    33    19    20   ar
    34    19    41    1
    35    20    21   ar
    36    20    42    1
    37    21    22   ar
    38    21    24    1
    39    22    23   ar
    40    22    43    1
    41    23    44    1
    42    24    45    1
    43    26    46    1
    44    27    47    1
    45    28    48    1
    46    29    49    1
    47    30    50    1
    48     1    31    1
    49     1    27    1
    50     2    32    1
    51     2    28    1
    52     4    34    1
    53     4    30    1
