@<TRIPOS>MOLECULE
*****
 50 53 0 0 0
SMALL
GASTEIGER

@<TRIPOS>ATOM
     1 C         -0.243344   1.116129   -1.861678 C.3        1 UNL1     0.1889
     2 C         0.349103   -0.059074   -1.038364 C.3        1 UNL1     0.1342
     3 C         1.883375   -0.139018   -1.047418 C.3        1 UNL1     0.1174
     4 C         2.492633   0.298909   -2.381638 C.3        1 UNL1     0.1456
     5 C         1.882973   1.611701   -2.906285 C.3        1 UNL1     0.2326
     6 O         0.469878   1.473499   -3.03641 O.3        1 UNL1     -0.3076
     7 O         2.27048   2.76884   -2.143272 O.3        1 UNL1     -0.4605
     8 C         1.702718   3.969005   -2.531573 C.ar        1 UNL1     0.1310
     9 C         0.766456   4.127681   -3.558966 C.ar        1 UNL1     0.0226
     10 C         0.235601   5.38609   -3.866379 C.ar        1 UNL1     0.1343
     11 C         0.610686   6.513803   -3.137396 C.ar        1 UNL1     0.1007
     12 C         1.575557   6.37459   -2.136183 C.ar        1 UNL1     0.1389
     13 C         2.111147   5.109589   -1.829026 C.ar        1 UNL1     0.0229
     14 C         0.01912   7.852753   -3.364147 C.2        1 UNL1     0.1740
     15 C         0.371286   8.898781   -2.347608 C.3        1 UNL1     0.0520
     16 C         1.841718   8.742593   -1.985129 C.3        1 UNL1     0.1322
     17 O         2.096676   7.433591   -1.42963 O.3        1 UNL1     -0.4828
     18 C         2.799646   9.153656   -3.1059 C.ar        1 UNL1     -0.0067
     19 C         4.18209   9.234661   -2.840384 C.ar        1 UNL1     -0.0516
     20 C         5.080199   9.65304   -3.829486 C.ar        1 UNL1     -0.0198
     21 C         4.608606   9.999434   -5.083056 C.ar        1 UNL1     0.1169
     22 C         3.256779   9.897953   -5.384891 C.ar        1 UNL1     -0.0198
     23 C         2.360694   9.461948   -4.401536 C.ar        1 UNL1     -0.0516
     24 O         5.508399   10.438543   -6.009314 O.3        1 UNL1     -0.5068
     25 O         -0.77395   8.096998   -4.269614 O.2        1 UNL1     -0.2917
     26 O         -0.672766   5.4731   -4.880718 O.3        1 UNL1     -0.5058
     27 O         -0.561077   2.253547   -1.075477 O.3        1 UNL1     -0.3648
     28 O         -0.147484   -1.294901   -1.585026 O.3        1 UNL1     -0.3841
     29 O         2.434247   0.562219   0.069246 O.3        1 UNL1     -0.3863
     30 O         2.277344   -0.737827   -3.363737 O.3        1 UNL1     -0.3829
     31 H         -1.211159   0.773658   -2.243941 H        1 UNL1     0.0937
     32 H         0.0   0.0   0.0 H        1 UNL1     0.0671
     33 H         2.165247   -1.190844   -0.899334 H        1 UNL1     0.0649
     34 H         3.576379   0.420288   -2.275981 H        1 UNL1     0.0683
     35 H         2.289141   1.70491   -3.921282 H        1 UNL1     0.1085
     36 H         0.392581   3.281798   -4.125376 H        1 UNL1     0.0691
     37 H         2.861755   5.028106   -1.045801 H        1 UNL1     0.0691
     38 H         -0.269845   8.740581   -1.473851 H        1 UNL1     0.0385
     39 H         0.149393   9.889021   -2.759879 H        1 UNL1     0.0385
     40 H         2.046806   9.43631   -1.15856 H        1 UNL1     0.0789
     41 H         4.576216   8.977022   -1.861641 H        1 UNL1     0.0623
     42 H         6.142498   9.722762   -3.608871 H        1 UNL1     0.0654
     43 H         2.878619   10.15231   -6.36785 H        1 UNL1     0.0654
     44 H         1.312883   9.384452   -4.675272 H        1 UNL1     0.0623
     45 H         5.716827   9.702591   -6.607352 H        1 UNL1     0.2921
     46 H         -1.033811   6.373021   -4.915363 H        1 UNL1     0.2922
     47 H         -1.520139   2.371853   -1.030044 H        1 UNL1     0.2126
     48 H         0.606638   -1.915103   -1.604583 H        1 UNL1     0.2101
     49 H         2.694501   1.457764   -0.199194 H        1 UNL1     0.2100
     50 H         1.53669   -0.457662   -3.940497 H        1 UNL1     0.2102
@<TRIPOS>BOND
     1     1     2    1
     2     1     6    1
     3     2     3    1
     4     3     4    1
     5     3    29    1
     6     3    33    1
     7     4     5    1
     8     5     6    1
     9     5     7    1
    10     5    35    1
    11     7     8    1
    12     8     9   ar
    13     8    13   ar
    14     9    10   ar
    15     9    36    1
    16    10    11   ar
    17    10    26    1
    18    11    12   ar
    19    11    14    1
    20    12    13   ar
    21    12    17    1
    22    13    37    1
    23    14    15    1
    24    14    25    2
    25    15    16    1
    26    15    38    1
    27    15    39    1
    28    16    17    1
    29    16    18    1
    30    16    40    1
    31    18    19   ar
    32    18    23   ar
    33    19    20   ar
    34    19    41    1
    35    20    21   ar
    36    20    42    1
    37    21    22   ar
    38    21    24    1
    39    22    23   ar
    40    22    43    1
    41    23    44    1
    42    24    45    1
    43    26    46    1
    44    27    47    1
    45    28    48    1
    46    29    49    1
    47    30    50    1
    48     1    31    1
    49     1    27    1
    50     2    32    1
    51     2    28    1
    52     4    34    1
    53     4    30    1
