@<TRIPOS>MOLECULE
*****
 50 53 0 0 0
SMALL
GASTEIGER

@<TRIPOS>ATOM
     1 C         -0.79856   1.698648   1.117006 C.3        1 UNL1     0.1889
     2 C         0.18407   1.077941   0.087879 C.3        1 UNL1     0.1342
     3 C         1.670474   1.308612   0.400705 C.3        1 UNL1     0.1174
     4 C         1.936057   2.668823   1.050635 C.3        1 UNL1     0.1456
     5 C         0.950837   2.979999   2.192071 C.3        1 UNL1     0.2326
     6 O         -0.388672   2.923565   1.70689 O.3        1 UNL1     -0.3076
     7 O         1.161635   2.175338   3.366553 O.3        1 UNL1     -0.4605
     8 C         0.282622   1.122366   3.545759 C.ar        1 UNL1     0.1310
     9 C         0.304479   0.221728   4.61612 C.ar        1 UNL1     0.0226
     10 C         -0.642273   -0.80453   4.717896 C.ar        1 UNL1     0.1343
     11 C         -1.649321   -0.940594   3.763338 C.ar        1 UNL1     0.1007
     12 C         -1.656813   -0.072572   2.668229 C.ar        1 UNL1     0.1389
     13 C         -0.703159   0.957605   2.564734 C.ar        1 UNL1     0.0229
     14 C         -2.724596   -1.954201   3.866006 C.2        1 UNL1     0.1740
     15 C         -3.844865   -1.814735   2.877525 C.3        1 UNL1     0.0520
     16 C         -3.25186   -1.434953   1.527685 C.3        1 UNL1     0.1322
     17 O         -2.535922   -0.183273   1.616003 O.3        1 UNL1     -0.4828
     18 C         -2.469667   -2.567251   0.85776 C.ar        1 UNL1     -0.0067
     19 C         -2.944801   -3.891026   0.958166 C.ar        1 UNL1     -0.0516
     20 C         -2.228883   -4.955618   0.397749 C.ar        1 UNL1     -0.0198
     21 C         -1.035449   -4.710956   -0.257753 C.ar        1 UNL1     0.1169
     22 C         -0.558704   -3.414524   -0.40204 C.ar        1 UNL1     -0.0198
     23 C         -1.28379   -2.347745   0.142284 C.ar        1 UNL1     -0.0516
     24 O         -0.346809   -5.776817   -0.757869 O.3        1 UNL1     -0.5068
     25 O         -2.762488   -2.81323   4.743 O.2        1 UNL1     -0.2917
     26 O         -0.565126   -1.650199   5.785828 O.3        1 UNL1     -0.5058
     27 O         -1.254282   0.7744   2.092132 O.3        1 UNL1     -0.3648
     28 O         -0.077773   1.661305   -1.202016 O.3        1 UNL1     -0.3841
     29 O         2.204279   0.220094   1.157221 O.3        1 UNL1     -0.3863
     30 O         1.826176   3.702456   0.04803 O.3        1 UNL1     -0.3829
     31 H         -1.702233   1.971825   0.561282 H        1 UNL1     0.0937
     32 H         0.0   -0.0   0.0 H        1 UNL1     0.0671
     33 H         2.21901   1.298857   -0.55152 H        1 UNL1     0.0649
     34 H         2.96056   2.704909   1.437277 H        1 UNL1     0.0683
     35 H         1.156259   4.028854   2.440233 H        1 UNL1     0.1085
     36 H         1.027557   0.308531   5.419702 H        1 UNL1     0.0691
     37 H         -0.729911   1.6195   1.701791 H        1 UNL1     0.0691
     38 H         -4.517482   -1.033475   3.247314 H        1 UNL1     0.0385
     39 H         -4.404388   -2.755386   2.834067 H        1 UNL1     0.0385
     40 H         -4.092333   -1.223478   0.852849 H        1 UNL1     0.0789
     41 H         -3.874247   -4.110322   1.475554 H        1 UNL1     0.0623
     42 H         -2.599656   -5.973272   0.492186 H        1 UNL1     0.0654
     43 H         0.367084   -3.210077   -0.926471 H        1 UNL1     0.0654
     44 H         -0.88719   -1.346872   0.001549 H        1 UNL1     0.0623
     45 H         -0.670675   -5.957497   -1.655188 H        1 UNL1     0.2921
     46 H         -0.358625   -1.142369   6.586376 H        1 UNL1     0.2922
     47 H         -1.435225   1.229734   2.926272 H        1 UNL1     0.2126
     48 H         0.731284   1.536972   -1.734651 H        1 UNL1     0.2101
     49 H         3.020467   0.49707   1.60322 H        1 UNL1     0.2100
     50 H         2.442407   3.482124   -0.680959 H        1 UNL1     0.2102
@<TRIPOS>BOND
     1     1     2    1
     2     1     6    1
     3     2     3    1
     4     3     4    1
     5     3    29    1
     6     3    33    1
     7     4     5    1
     8     5     6    1
     9     5     7    1
    10     5    35    1
    11     7     8    1
    12     8     9   ar
    13     8    13   ar
    14     9    10   ar
    15     9    36    1
    16    10    11   ar
    17    10    26    1
    18    11    12   ar
    19    11    14    1
    20    12    13   ar
    21    12    17    1
    22    13    37    1
    23    14    15    1
    24    14    25    2
    25    15    16    1
    26    15    38    1
    27    15    39    1
    28    16    17    1
    29    16    18    1
    30    16    40    1
    31    18    19   ar
    32    18    23   ar
    33    19    20   ar
    34    19    41    1
    35    20    21   ar
    36    20    42    1
    37    21    22   ar
    38    21    24    1
    39    22    23   ar
    40    22    43    1
    41    23    44    1
    42    24    45    1
    43    26    46    1
    44    27    47    1
    45    28    48    1
    46    29    49    1
    47    30    50    1
    48     1    31    1
    49     1    27    1
    50     2    32    1
    51     2    28    1
    52     4    34    1
    53     4    30    1
