@<TRIPOS>MOLECULE
*****
 50 53 0 0 0
SMALL
GASTEIGER

@<TRIPOS>ATOM
     1 C         -0.409375   -1.362088   1.657689 C.3        1 UNL1     0.1889
     2 C         -0.502362   -0.961974   0.160624 C.3        1 UNL1     0.1342
     3 C         -1.933022   -0.878809   -0.393234 C.3        1 UNL1     0.1174
     4 C         -2.869439   -1.921322   0.222727 C.3        1 UNL1     0.1456
     5 C         -2.743242   -1.995763   1.755338 C.3        1 UNL1     0.2326
     6 O         -1.393381   -2.276119   2.118854 O.3        1 UNL1     -0.3076
     7 O         -3.28429   -0.846273   2.431549 O.3        1 UNL1     -0.4605
     8 C         -3.822151   -1.077694   3.684816 C.ar        1 UNL1     0.1310
     9 C         -4.684775   -2.128485   4.014995 C.ar        1 UNL1     0.0226
     10 C         -5.163858   -2.288517   5.320664 C.ar        1 UNL1     0.1343
     11 C         -4.772596   -1.414613   6.334097 C.ar        1 UNL1     0.1007
     12 C         -3.944238   -0.337497   6.007862 C.ar        1 UNL1     0.1389
     13 C         -3.464771   -0.17527   4.694384 C.ar        1 UNL1     0.0229
     14 C         -5.181362   -1.585906   7.747505 C.2        1 UNL1     0.1740
     15 C         -4.492056   -0.691539   8.735693 C.3        1 UNL1     0.0520
     16 C         -4.359894   0.69478   8.120381 C.3        1 UNL1     0.1322
     17 O         -3.584422   0.643478   6.902562 O.3        1 UNL1     -0.4828
     18 C         -5.689521   1.442462   7.99474 C.ar        1 UNL1     -0.0067
     19 C         -6.025699   2.056673   6.770835 C.ar        1 UNL1     -0.0516
     20 C         -7.2117   2.78827   6.63619 C.ar        1 UNL1     -0.0198
     21 C         -8.06441   2.918934   7.717689 C.ar        1 UNL1     0.1169
     22 C         -7.777084   2.297662   8.926119 C.ar        1 UNL1     -0.0198
     23 C         -6.600146   1.550599   9.055619 C.ar        1 UNL1     -0.0516
     24 O         -9.191651   3.670512   7.560022 O.3        1 UNL1     -0.5068
     25 O         -5.969802   -2.449353   8.123413 O.2        1 UNL1     -0.2917
     26 O         -6.003081   -3.333386   5.576669 O.3        1 UNL1     -0.5058
     27 O         -0.274083   -0.252973   2.531959 O.3        1 UNL1     -0.3648
     28 O         0.202332   -1.945921   -0.619094 O.3        1 UNL1     -0.3841
     29 O         -2.441088   0.452661   -0.287461 O.3        1 UNL1     -0.3863
     30 O         -2.563514   -3.219281   -0.331712 O.3        1 UNL1     -0.3829
     31 H         0.529017   -1.914795   1.776071 H        1 UNL1     0.0937
     32 H         0.0   0.0   0.0 H        1 UNL1     0.0671
     33 H         -1.888163   -1.089223   -1.470932 H        1 UNL1     0.0649
     34 H         -3.907788   -1.695423   -0.044107 H        1 UNL1     0.0683
     35 H         -3.336515   -2.877845   2.02707 H        1 UNL1     0.1085
     36 H         -4.981357   -2.873597   3.284948 H        1 UNL1     0.0691
     37 H         -2.822024   0.672196   4.465976 H        1 UNL1     0.0691
     38 H         -3.508782   -1.125802   8.945729 H        1 UNL1     0.0385
     39 H         -5.066104   -0.677526   9.668458 H        1 UNL1     0.0385
     40 H         -3.751433   1.297523   8.808128 H        1 UNL1     0.0789
     41 H         -5.368673   1.976555   5.909703 H        1 UNL1     0.0623
     42 H         -7.453975   3.267188   5.6907 H        1 UNL1     0.0654
     43 H         -8.445203   2.380962   9.774994 H        1 UNL1     0.0654
     44 H         -6.412574   1.06997   10.01095 H        1 UNL1     0.0623
     45 H         -8.926891   4.57618   7.331147 H        1 UNL1     0.2921
     46 H         -5.630645   -3.881288   6.285545 H        1 UNL1     0.2922
     47 H         0.493793   0.279319   2.281177 H        1 UNL1     0.2126
     48 H         1.132502   -1.924106   -0.32238 H        1 UNL1     0.2101
     49 H         -1.970338   1.035487   -0.90431 H        1 UNL1     0.2100
     50 H         -2.782042   -3.198436   -1.286449 H        1 UNL1     0.2102
@<TRIPOS>BOND
     1     1     2    1
     2     1     6    1
     3     2     3    1
     4     3     4    1
     5     3    29    1
     6     3    33    1
     7     4     5    1
     8     5     6    1
     9     5     7    1
    10     5    35    1
    11     7     8    1
    12     8     9   ar
    13     8    13   ar
    14     9    10   ar
    15     9    36    1
    16    10    11   ar
    17    10    26    1
    18    11    12   ar
    19    11    14    1
    20    12    13   ar
    21    12    17    1
    22    13    37    1
    23    14    15    1
    24    14    25    2
    25    15    16    1
    26    15    38    1
    27    15    39    1
    28    16    17    1
    29    16    18    1
    30    16    40    1
    31    18    19   ar
    32    18    23   ar
    33    19    20   ar
    34    19    41    1
    35    20    21   ar
    36    20    42    1
    37    21    22   ar
    38    21    24    1
    39    22    23   ar
    40    22    43    1
    41    23    44    1
    42    24    45    1
    43    26    46    1
    44    27    47    1
    45    28    48    1
    46    29    49    1
    47    30    50    1
    48     1    31    1
    49     1    27    1
    50     2    32    1
    51     2    28    1
    52     4    34    1
    53     4    30    1
