@<TRIPOS>MOLECULE
*****
 50 53 0 0 0
SMALL
GASTEIGER

@<TRIPOS>ATOM
     1 C         2.16656   0.07556   -0.266672 C.3        1 UNL1     0.1889
     2 C         0.90076   -0.034167   0.625321 C.3        1 UNL1     0.1342
     3 C         0.792264   1.039018   1.719381 C.3        1 UNL1     0.1174
     4 C         2.15288   1.438833   2.295568 C.3        1 UNL1     0.1456
     5 C         3.204802   1.695913   1.201158 C.3        1 UNL1     0.2326
     6 O         3.343245   0.539455   0.378781 O.3        1 UNL1     -0.3076
     7 O         2.967208   2.899838   0.449204 O.3        1 UNL1     -0.4605
     8 C         3.224507   4.087776   1.109603 C.ar        1 UNL1     0.1310
     9 C         2.584109   4.522134   2.27516 C.ar        1 UNL1     0.0226
     10 C         2.928121   5.736821   2.880217 C.ar        1 UNL1     0.1343
     11 C         3.938463   6.536112   2.347129 C.ar        1 UNL1     0.1007
     12 C         4.556793   6.132709   1.160656 C.ar        1 UNL1     0.1389
     13 C         4.208876   4.912582   0.551005 C.ar        1 UNL1     0.0229
     14 C         4.399854   7.787457   2.991649 C.2        1 UNL1     0.1740
     15 C         5.639053   8.399849   2.407773 C.3        1 UNL1     0.0520
     16 C         5.567865   8.278992   0.891764 C.3        1 UNL1     0.1322
     17 O         5.487005   6.893366   0.491049 O.3        1 UNL1     -0.4828
     18 C         4.516374   9.187359   0.249923 C.ar        1 UNL1     -0.0067
     19 C         4.495214   9.339395   -1.151737 C.ar        1 UNL1     -0.0516
     20 C         3.577502   10.198992   -1.767254 C.ar        1 UNL1     -0.0198
     21 C         2.682673   10.916098   -0.99339 C.ar        1 UNL1     0.1169
     22 C         2.656874   10.762261   0.386649 C.ar        1 UNL1     -0.0198
     23 C         3.562227   9.88875   1.000954 C.ar        1 UNL1     -0.0516
     24 O         1.829065   11.77213   -1.625026 O.3        1 UNL1     -0.5068
     25 O         3.869508   8.269646   3.989001 O.2        1 UNL1     -0.2917
     26 O         2.264695   6.103441   4.014695 O.3        1 UNL1     -0.5058
     27 O         1.938242   0.755019   -1.491006 O.3        1 UNL1     -0.3648
     28 O         0.915117   -1.315339   1.281902 O.3        1 UNL1     -0.3841
     29 O         0.036099   2.159938   1.256905 O.3        1 UNL1     -0.3863
     30 O         2.629958   0.384278   3.159281 O.3        1 UNL1     -0.3829
     31 H         2.425697   -0.945016   -0.568913 H        1 UNL1     0.0937
     32 H         -0.0   0.0   0.0 H        1 UNL1     0.0671
     33 H         0.208303   0.615089   2.548231 H        1 UNL1     0.0649
     34 H         2.047723   2.33694   2.914233 H        1 UNL1     0.0683
     35 H         4.144022   1.805872   1.757624 H        1 UNL1     0.1085
     36 H         1.829705   3.919957   2.769508 H        1 UNL1     0.0691
     37 H         4.704372   4.621735   -0.372783 H        1 UNL1     0.0691
     38 H         6.499121   7.852235   2.807683 H        1 UNL1     0.0385
     39 H         5.713858   9.44186   2.737007 H        1 UNL1     0.0385
     40 H         6.531799   8.624044   0.493907 H        1 UNL1     0.0789
     41 H         5.193328   8.794591   -1.780606 H        1 UNL1     0.0623
     42 H         3.579026   10.316673   -2.848069 H        1 UNL1     0.0654
     43 H         1.950349   11.307584   1.000943 H        1 UNL1     0.0654
     44 H         3.506909   9.785082   2.080323 H        1 UNL1     0.0623
     45 H         1.833809   11.565526   -2.573714 H        1 UNL1     0.2921
     46 H         1.672217   6.846024   3.817331 H        1 UNL1     0.2922
     47 H         2.507951   0.394983   -2.185027 H        1 UNL1     0.2126
     48 H         1.520434   -1.885367   0.76966 H        1 UNL1     0.2101
     49 H         0.595217   2.730481   0.705849 H        1 UNL1     0.2100
     50 H         3.354428   -0.082439   2.693415 H        1 UNL1     0.2102
@<TRIPOS>BOND
     1     1     2    1
     2     1     6    1
     3     2     3    1
     4     3     4    1
     5     3    29    1
     6     3    33    1
     7     4     5    1
     8     5     6    1
     9     5     7    1
    10     5    35    1
    11     7     8    1
    12     8     9   ar
    13     8    13   ar
    14     9    10   ar
    15     9    36    1
    16    10    11   ar
    17    10    26    1
    18    11    12   ar
    19    11    14    1
    20    12    13   ar
    21    12    17    1
    22    13    37    1
    23    14    15    1
    24    14    25    2
    25    15    16    1
    26    15    38    1
    27    15    39    1
    28    16    17    1
    29    16    18    1
    30    16    40    1
    31    18    19   ar
    32    18    23   ar
    33    19    20   ar
    34    19    41    1
    35    20    21   ar
    36    20    42    1
    37    21    22   ar
    38    21    24    1
    39    22    23   ar
    40    22    43    1
    41    23    44    1
    42    24    45    1
    43    26    46    1
    44    27    47    1
    45    28    48    1
    46    29    49    1
    47    30    50    1
    48     1    31    1
    49     1    27    1
    50     2    32    1
    51     2    28    1
    52     4    34    1
    53     4    30    1
