@<TRIPOS>MOLECULE
*****
 50 53 0 0 0
SMALL
GASTEIGER

@<TRIPOS>ATOM
     1 C         -0.337043   -1.330421   1.699172 C.3        1 UNL1     0.1889
     2 C         -0.465087   -0.974575   0.193543 C.3        1 UNL1     0.1342
     3 C         -1.905338   -0.957521   -0.341108 C.3        1 UNL1     0.1174
     4 C         -2.794956   -2.015702   0.316122 C.3        1 UNL1     0.1456
     5 C         -2.644976   -2.044055   1.848135 C.3        1 UNL1     0.2326
     6 O         -1.280987   -2.266139   2.198967 O.3        1 UNL1     -0.3076
     7 O         -3.217707   -0.896699   2.501491 O.3        1 UNL1     -0.4605
     8 C         -3.729069   -1.113021   3.768473 C.ar        1 UNL1     0.1310
     9 C         -4.548303   -2.184666   4.139595 C.ar        1 UNL1     0.0226
     10 C         -5.002776   -2.326136   5.45616 C.ar        1 UNL1     0.1343
     11 C         -4.629154   -1.41149   6.439861 C.ar        1 UNL1     0.1007
     12 C         -3.845058   -0.314667   6.072496 C.ar        1 UNL1     0.1389
     13 C         -3.390391   -0.171202   4.748061 C.ar        1 UNL1     0.0229
     14 C         -5.011433   -1.558756   7.863353 C.2        1 UNL1     0.1740
     15 C         -4.34109   -0.613673   8.816773 C.3        1 UNL1     0.0520
     16 C         -4.267951   0.759215   8.16272 C.3        1 UNL1     0.1322
     17 O         -3.508415   0.702581   6.935134 O.3        1 UNL1     -0.4828
     18 C         -5.625438   1.455067   8.037246 C.ar        1 UNL1     -0.0067
     19 C         -6.002094   2.020817   6.801822 C.ar        1 UNL1     -0.0516
     20 C         -7.21562   2.705453   6.665481 C.ar        1 UNL1     -0.0198
     21 C         -8.055973   2.837271   7.75647 C.ar        1 UNL1     0.1169
     22 C         -7.728112   2.262273   8.977422 C.ar        1 UNL1     -0.0198
     23 C         -6.523162   1.561715   9.109213 C.ar        1 UNL1     -0.0516
     24 O         -9.211856   3.543284   7.595593 O.3        1 UNL1     -0.5068
     25 O         -5.762681   -2.439343   8.274057 O.2        1 UNL1     -0.2917
     26 O         -5.799889   -3.393048   5.752631 O.3        1 UNL1     -0.5058
     27 O         -0.229745   -0.193913   2.541564 O.3        1 UNL1     -0.3648
     28 O         0.263769   -1.953522   -0.570092 O.3        1 UNL1     -0.3841
     29 O         -2.459561   0.357358   -0.263249 O.3        1 UNL1     -0.3863
     30 O         -2.450135   -3.316465   -0.208095 O.3        1 UNL1     -0.3829
     31 H         0.622212   -1.845899   1.818306 H        1 UNL1     0.0937
     32 H         0.0   0.0   0.0 H        1 UNL1     0.0671
     33 H         -1.86783   -1.195315   -1.41338 H        1 UNL1     0.0649
     34 H         -3.844365   -1.83429   0.058767 H        1 UNL1     0.0683
     35 H         -3.202249   -2.939051   2.151956 H        1 UNL1     0.1085
     36 H         -4.827979   -2.959539   3.434276 H        1 UNL1     0.0691
     37 H         -2.782063   0.692218   4.487414 H        1 UNL1     0.0691
     38 H         -3.339858   -1.006536   9.023461 H        1 UNL1     0.0385
     39 H         -4.902032   -0.594837   9.757394 H        1 UNL1     0.0385
     40 H         -3.672071   1.401888   8.824852 H        1 UNL1     0.0789
     41 H         -5.355754   1.938974   5.932801 H        1 UNL1     0.0623
     42 H         -7.489339   3.14755   5.710683 H        1 UNL1     0.0654
     43 H         -8.385838   2.346541   9.834281 H        1 UNL1     0.0654
     44 H         -6.303893   1.116248   10.074783 H        1 UNL1     0.0623
     45 H         -8.983442   4.450718   7.336541 H        1 UNL1     0.2921
     46 H         -5.397867   -3.907737   6.470186 H        1 UNL1     0.2922
     47 H         0.514901   0.358438   2.265396 H        1 UNL1     0.2126
     48 H         1.196563   -1.890516   -0.287854 H        1 UNL1     0.2101
     49 H         -2.018585   0.939724   -0.902142 H        1 UNL1     0.2100
     50 H         -2.682455   -3.329295   -1.159713 H        1 UNL1     0.2102
@<TRIPOS>BOND
     1     1     2    1
     2     1     6    1
     3     2     3    1
     4     3     4    1
     5     3    29    1
     6     3    33    1
     7     4     5    1
     8     5     6    1
     9     5     7    1
    10     5    35    1
    11     7     8    1
    12     8     9   ar
    13     8    13   ar
    14     9    10   ar
    15     9    36    1
    16    10    11   ar
    17    10    26    1
    18    11    12   ar
    19    11    14    1
    20    12    13   ar
    21    12    17    1
    22    13    37    1
    23    14    15    1
    24    14    25    2
    25    15    16    1
    26    15    38    1
    27    15    39    1
    28    16    17    1
    29    16    18    1
    30    16    40    1
    31    18    19   ar
    32    18    23   ar
    33    19    20   ar
    34    19    41    1
    35    20    21   ar
    36    20    42    1
    37    21    22   ar
    38    21    24    1
    39    22    23   ar
    40    22    43    1
    41    23    44    1
    42    24    45    1
    43    26    46    1
    44    27    47    1
    45    28    48    1
    46    29    49    1
    47    30    50    1
    48     1    31    1
    49     1    27    1
    50     2    32    1
    51     2    28    1
    52     4    34    1
    53     4    30    1
