@<TRIPOS>MOLECULE
*****
 50 53 0 0 0
SMALL
GASTEIGER

@<TRIPOS>ATOM
     1 C         -0.221428   -1.563589   1.508961 C.3        1 UNL1     0.1889
     2 C         -0.811777   -0.511748   0.53169 C.3        1 UNL1     0.1342
     3 C         -1.718953   0.538267   1.19121 C.3        1 UNL1     0.1174
     4 C         -2.5357   -0.029696   2.354594 C.3        1 UNL1     0.1456
     5 C         -1.684026   -0.882086   3.31295 C.3        1 UNL1     0.2326
     6 O         -1.056163   -1.941145   2.593887 O.3        1 UNL1     -0.3076
     7 O         -0.761377   -0.1088   4.101663 O.3        1 UNL1     -0.4605
     8 C         -0.995347   -0.091845   5.46493 C.ar        1 UNL1     0.1310
     9 C         -0.23874   0.611667   6.408285 C.ar        1 UNL1     0.0226
     10 C         -0.566854   0.579356   7.768873 C.ar        1 UNL1     0.1343
     11 C         -1.674851   -0.138791   8.216588 C.ar        1 UNL1     0.1007
     12 C         -2.413755   -0.878468   7.289398 C.ar        1 UNL1     0.1389
     13 C         -2.082062   -0.847947   5.921744 C.ar        1 UNL1     0.0229
     14 C         -2.11628   -0.139642   9.630552 C.2        1 UNL1     0.1740
     15 C         -3.447814   -0.77903   9.894652 C.3        1 UNL1     0.0520
     16 C         -3.55858   -2.032824   9.038095 C.3        1 UNL1     0.1322
     17 O         -3.457253   -1.705633   7.634617 O.3        1 UNL1     -0.4828
     18 C         -2.642301   -3.171866   9.491681 C.ar        1 UNL1     -0.0067
     19 C         -1.698371   -3.702731   8.588691 C.ar        1 UNL1     -0.0516
     20 C         -0.877776   -4.775967   8.955776 C.ar        1 UNL1     -0.0198
     21 C         -0.996265   -5.330685   10.21755 C.ar        1 UNL1     0.1169
     22 C         -1.893128   -4.808185   11.140301 C.ar        1 UNL1     -0.0198
     23 C         -2.700937   -3.723053   10.779761 C.ar        1 UNL1     -0.0516
     24 O         -0.206803   -6.399216   10.526407 O.3        1 UNL1     -0.5068
     25 O         -1.491979   0.410244   10.534078 O.2        1 UNL1     -0.2917
     26 O         0.212189   1.286448   8.637606 O.3        1 UNL1     -0.5058
     27 O         1.094176   -1.256861   1.942424 O.3        1 UNL1     -0.3648
     28 O         -1.600984   -1.199687   -0.456539 O.3        1 UNL1     -0.3841
     29 O         -0.969186   1.698837   1.555981 O.3        1 UNL1     -0.3863
     30 O         -3.602799   -0.848648   1.828946 O.3        1 UNL1     -0.3829
     31 H         -0.107787   -2.491741   0.938261 H        1 UNL1     0.0937
     32 H         0.0   0.0   0.0 H        1 UNL1     0.0671
     33 H         -2.438915   0.881717   0.435289 H        1 UNL1     0.0649
     34 H         -3.004493   0.786162   2.91585 H        1 UNL1     0.0683
     35 H         -2.420894   -1.343834   3.982049 H        1 UNL1     0.1085
     36 H         0.600764   1.233359   6.116991 H        1 UNL1     0.0691
     37 H         -2.672498   -1.433443   5.220264 H        1 UNL1     0.0691
     38 H         -4.22273   -0.051179   9.631471 H        1 UNL1     0.0385
     39 H         -3.534435   -0.999236   10.96413 H        1 UNL1     0.0385
     40 H         -4.580669   -2.417059   9.157332 H        1 UNL1     0.0789
     41 H         -1.592366   -3.290869   7.589299 H        1 UNL1     0.0623
     42 H         -0.162054   -5.184156   8.246455 H        1 UNL1     0.0654
     43 H         -1.98352   -5.225278   12.136179 H        1 UNL1     0.0654
     44 H         -3.383047   -3.333464   11.529287 H        1 UNL1     0.0623
     45 H         -0.466166   -7.145469   9.962002 H        1 UNL1     0.2921
     46 H         -0.183142   1.258186   9.523228 H        1 UNL1     0.2922
     47 H         1.483142   -2.017637   2.396059 H        1 UNL1     0.2126
     48 H         -2.535588   -1.084773   -0.197615 H        1 UNL1     0.2101
     49 H         -0.040768   1.586943   1.296533 H        1 UNL1     0.2100
     50 H         -4.230558   -0.26106   1.359508 H        1 UNL1     0.2102
@<TRIPOS>BOND
     1     1     2    1
     2     1     6    1
     3     2     3    1
     4     3     4    1
     5     3    29    1
     6     3    33    1
     7     4     5    1
     8     5     6    1
     9     5     7    1
    10     5    35    1
    11     7     8    1
    12     8     9   ar
    13     8    13   ar
    14     9    10   ar
    15     9    36    1
    16    10    11   ar
    17    10    26    1
    18    11    12   ar
    19    11    14    1
    20    12    13   ar
    21    12    17    1
    22    13    37    1
    23    14    15    1
    24    14    25    2
    25    15    16    1
    26    15    38    1
    27    15    39    1
    28    16    17    1
    29    16    18    1
    30    16    40    1
    31    18    19   ar
    32    18    23   ar
    33    19    20   ar
    34    19    41    1
    35    20    21   ar
    36    20    42    1
    37    21    22   ar
    38    21    24    1
    39    22    23   ar
    40    22    43    1
    41    23    44    1
    42    24    45    1
    43    26    46    1
    44    27    47    1
    45    28    48    1
    46    29    49    1
    47    30    50    1
    48     1    31    1
    49     1    27    1
    50     2    32    1
    51     2    28    1
    52     4    34    1
    53     4    30    1
