@<TRIPOS>MOLECULE
*****
 50 53 0 0 0
SMALL
GASTEIGER

@<TRIPOS>ATOM
     1 C         0.321928   1.336259   -1.697521 C.3        1 UNL1     0.1889
     2 C         0.814567   0.601912   -0.421598 C.3        1 UNL1     0.1342
     3 C         1.374863   1.523426   0.672635 C.3        1 UNL1     0.1174
     4 C         2.113788   2.737822   0.104876 C.3        1 UNL1     0.1456
     5 C         1.329407   3.431316   -1.023918 C.3        1 UNL1     0.2326
     6 O         1.049731   2.498709   -2.065501 O.3        1 UNL1     -0.3076
     7 O         0.159935   4.13195   -0.562651 O.3        1 UNL1     -0.4605
     8 C         -1.05619   3.545488   -0.8637 C.ar        1 UNL1     0.1310
     9 C         -1.91564   3.944655   -1.892929 C.ar        1 UNL1     0.0226
     10 C         -3.121475   3.27404   -2.129868 C.ar        1 UNL1     0.1343
     11 C         -3.486208   2.171975   -1.357688 C.ar        1 UNL1     0.1007
     12 C         -2.655818   1.78943   -0.300855 C.ar        1 UNL1     0.1389
     13 C         -1.444683   2.465537   -0.061143 C.ar        1 UNL1     0.0229
     14 C         -4.70759   1.375242   -1.617684 C.2        1 UNL1     0.1740
     15 C         -4.828451   0.098949   -0.83793 C.3        1 UNL1     0.0520
     16 C         -4.347748   0.355545   0.583704 C.3        1 UNL1     0.1322
     17 O         -2.969371   0.788119   0.588711 O.3        1 UNL1     -0.4828
     18 C         -5.292376   1.237492   1.403809 C.ar        1 UNL1     -0.0067
     19 C         -6.510056   1.664053   0.835026 C.ar        1 UNL1     -0.0516
     20 C         -7.374814   2.50982   1.539891 C.ar        1 UNL1     -0.0198
     21 C         -7.030667   2.940981   2.808549 C.ar        1 UNL1     0.1169
     22 C         -5.854146   2.511218   3.4085 C.ar        1 UNL1     -0.0198
     23 C         -4.997932   1.650648   2.711096 C.ar        1 UNL1     -0.0516
     24 O         -7.879887   3.794427   3.449527 O.3        1 UNL1     -0.5068
     25 O         -5.542086   1.674852   -2.467587 O.2        1 UNL1     -0.2917
     26 O         -3.9153   3.714045   -3.148604 O.3        1 UNL1     -0.5058
     27 O         -1.077622   1.568325   -1.711438 O.3        1 UNL1     -0.3648
     28 O         1.866253   -0.30722   -0.795953 O.3        1 UNL1     -0.3841
     29 O         0.353138   1.883273   1.604687 O.3        1 UNL1     -0.3863
     30 O         3.394078   2.314281   -0.412 O.3        1 UNL1     -0.3829
     31 H         0.490234   0.65246   -2.53667 H        1 UNL1     0.0937
     32 H         0.0   0.0   0.0 H        1 UNL1     0.0671
     33 H         2.109182   0.947234   1.25272 H        1 UNL1     0.0649
     34 H         2.313777   3.460857   0.903389 H        1 UNL1     0.0683
     35 H         2.040994   4.160442   -1.431224 H        1 UNL1     0.1085
     36 H         -1.662746   4.758561   -2.563542 H        1 UNL1     0.0691
     37 H         -0.816439   2.148834   0.768617 H        1 UNL1     0.0691
     38 H         -4.206826   -0.653175   -1.335341 H        1 UNL1     0.0385
     39 H         -5.868664   -0.242863   -0.867924 H        1 UNL1     0.0385
     40 H         -4.333214   -0.613653   1.100389 H        1 UNL1     0.0789
     41 H         -6.798753   1.346966   -0.162852 H        1 UNL1     0.0623
     42 H         -8.30534   2.841374   1.085795 H        1 UNL1     0.0654
     43 H         -5.582082   2.830699   4.407411 H        1 UNL1     0.0654
     44 H         -4.092205   1.326366   3.21443 H        1 UNL1     0.0623
     45 H         -8.6432   3.958536   2.872345 H        1 UNL1     0.2921
     46 H         -4.681917   4.182501   -2.782192 H        1 UNL1     0.2922
     47 H         -1.287511   2.314696   -2.290003 H        1 UNL1     0.2126
     48 H         1.948429   -0.954341   -0.069169 H        1 UNL1     0.2101
     49 H         -0.081667   2.702106   1.317892 H        1 UNL1     0.2100
     50 H         4.08031   2.563319   0.241282 H        1 UNL1     0.2102
@<TRIPOS>BOND
     1     1     2    1
     2     1     6    1
     3     2     3    1
     4     3     4    1
     5     3    29    1
     6     3    33    1
     7     4     5    1
     8     5     6    1
     9     5     7    1
    10     5    35    1
    11     7     8    1
    12     8     9   ar
    13     8    13   ar
    14     9    10   ar
    15     9    36    1
    16    10    11   ar
    17    10    26    1
    18    11    12   ar
    19    11    14    1
    20    12    13   ar
    21    12    17    1
    22    13    37    1
    23    14    15    1
    24    14    25    2
    25    15    16    1
    26    15    38    1
    27    15    39    1
    28    16    17    1
    29    16    18    1
    30    16    40    1
    31    18    19   ar
    32    18    23   ar
    33    19    20   ar
    34    19    41    1
    35    20    21   ar
    36    20    42    1
    37    21    22   ar
    38    21    24    1
    39    22    23   ar
    40    22    43    1
    41    23    44    1
    42    24    45    1
    43    26    46    1
    44    27    47    1
    45    28    48    1
    46    29    49    1
    47    30    50    1
    48     1    31    1
    49     1    27    1
    50     2    32    1
    51     2    28    1
    52     4    34    1
    53     4    30    1
