@<TRIPOS>MOLECULE
*****
 50 53 0 0 0
SMALL
GASTEIGER

@<TRIPOS>ATOM
     1 C         -0.81809   -2.00041   0.316061 C.3        1 UNL1     0.1889
     2 C         -0.898003   -0.45474   0.436308 C.3        1 UNL1     0.1342
     3 C         -1.078787   0.068454   1.869504 C.3        1 UNL1     0.1174
     4 C         -1.943012   -0.85355   2.733298 C.3        1 UNL1     0.1456
     5 C         -1.540572   -2.333797   2.601862 C.3        1 UNL1     0.2326
     6 O         -1.6102   -2.737007   1.236051 O.3        1 UNL1     -0.3076
     7 O         -0.277266   -2.64133   3.218954 O.3        1 UNL1     -0.4605
     8 C         0.835098   -2.045037   2.652732 C.ar        1 UNL1     0.1310
     9 C         1.474761   -0.89881   3.136775 C.ar        1 UNL1     0.0226
     10 C         2.608799   -0.379752   2.500821 C.ar        1 UNL1     0.1343
     11 C         3.145281   -1.008705   1.378125 C.ar        1 UNL1     0.1007
     12 C         2.491297   -2.130322   0.861343 C.ar        1 UNL1     0.1389
     13 C         1.349501   -2.650502   1.499423 C.ar        1 UNL1     0.0229
     14 C         4.389536   -0.551986   0.716769 C.2        1 UNL1     0.1740
     15 C         4.942114   -1.471207   -0.332631 C.3        1 UNL1     0.0520
     16 C         3.781194   -2.027748   -1.145332 C.3        1 UNL1     0.1322
     17 O         2.869511   -2.76337   -0.299894 O.3        1 UNL1     -0.4828
     18 C         3.110719   -0.99204   -2.051145 C.ar        1 UNL1     -0.0067
     19 C         3.909743   -0.164582   -2.866675 C.ar        1 UNL1     -0.0516
     20 C         3.331751   0.824663   -3.671212 C.ar        1 UNL1     -0.0198
     21 C         1.959636   1.00093   -3.663565 C.ar        1 UNL1     0.1169
     22 C         1.143637   0.179577   -2.896517 C.ar        1 UNL1     -0.0198
     23 C         1.719874   -0.821915   -2.105934 C.ar        1 UNL1     -0.0516
     24 O         1.435787   1.999337   -4.431137 O.3        1 UNL1     -0.5068
     25 O         4.993434   0.466794   1.042159 O.2        1 UNL1     -0.2917
     26 O         3.184907   0.741589   3.022625 O.3        1 UNL1     -0.5058
     27 O         0.51032   -2.494833   0.255564 O.3        1 UNL1     -0.3648
     28 O         -2.024847   0.00494   -0.332862 O.3        1 UNL1     -0.3841
     29 O         0.186523   0.360238   2.466147 O.3        1 UNL1     -0.3863
     30 O         -3.32559   -0.711883   2.340744 O.3        1 UNL1     -0.3829
     31 H         -1.24742   -2.261053   -0.657499 H        1 UNL1     0.0937
     32 H         0.0   0.0   0.0 H        1 UNL1     0.0671
     33 H         -1.603004   1.032552   1.810918 H        1 UNL1     0.0649
     34 H         -1.875834   -0.552478   3.784604 H        1 UNL1     0.0683
     35 H         -2.334735   -2.872105   3.134224 H        1 UNL1     0.1085
     36 H         1.13986   -0.396351   4.037606 H        1 UNL1     0.0691
     37 H         0.858109   -3.524111   1.076536 H        1 UNL1     0.0691
     38 H         5.484478   -2.272168   0.181012 H        1 UNL1     0.0385
     39 H         5.655373   -0.91899   -0.953998 H        1 UNL1     0.0385
     40 H         4.195525   -2.784014   -1.825709 H        1 UNL1     0.0789
     41 H         4.989903   -0.276921   -2.883524 H        1 UNL1     0.0623
     42 H         3.959551   1.464274   -4.28666 H        1 UNL1     0.0654
     43 H         0.066776   0.299062   -2.894551 H        1 UNL1     0.0654
     44 H         1.051472   -1.452233   -1.527329 H        1 UNL1     0.0623
     45 H         1.285301   1.651983   -5.325237 H        1 UNL1     0.2921
     46 H         3.293306   0.633681   3.980758 H        1 UNL1     0.2922
     47 H         0.512136   -3.459527   0.327832 H        1 UNL1     0.2126
     48 H         -1.661518   0.452977   -1.12089 H        1 UNL1     0.2101
     49 H         0.881202   0.349552   1.788577 H        1 UNL1     0.2100
     50 H         -3.883576   -0.977656   3.100829 H        1 UNL1     0.2102
@<TRIPOS>BOND
     1     1     2    1
     2     1     6    1
     3     2     3    1
     4     3     4    1
     5     3    29    1
     6     3    33    1
     7     4     5    1
     8     5     6    1
     9     5     7    1
    10     5    35    1
    11     7     8    1
    12     8     9   ar
    13     8    13   ar
    14     9    10   ar
    15     9    36    1
    16    10    11   ar
    17    10    26    1
    18    11    12   ar
    19    11    14    1
    20    12    13   ar
    21    12    17    1
    22    13    37    1
    23    14    15    1
    24    14    25    2
    25    15    16    1
    26    15    38    1
    27    15    39    1
    28    16    17    1
    29    16    18    1
    30    16    40    1
    31    18    19   ar
    32    18    23   ar
    33    19    20   ar
    34    19    41    1
    35    20    21   ar
    36    20    42    1
    37    21    22   ar
    38    21    24    1
    39    22    23   ar
    40    22    43    1
    41    23    44    1
    42    24    45    1
    43    26    46    1
    44    27    47    1
    45    28    48    1
    46    29    49    1
    47    30    50    1
    48     1    31    1
    49     1    27    1
    50     2    32    1
    51     2    28    1
    52     4    34    1
    53     4    30    1
