@<TRIPOS>MOLECULE
*****
 50 53 0 0 0
SMALL
GASTEIGER

@<TRIPOS>ATOM
     1 C         -0.345569   -1.336324   1.692815 C.3        1 UNL1     0.1889
     2 C         -0.469086   -0.973659   0.188436 C.3        1 UNL1     0.1342
     3 C         -1.90812   -0.94903   -0.349189 C.3        1 UNL1     0.1174
     4 C         -2.803032   -2.006681   0.301675 C.3        1 UNL1     0.1456
     5 C         -2.656428   -2.042051   1.833869 C.3        1 UNL1     0.2326
     6 O         -1.29402   -2.27065   2.186649 O.3        1 UNL1     -0.3076
     7 O         -3.226322   -0.895355   2.490854 O.3        1 UNL1     -0.4605
     8 C         -3.775465   -1.123048   3.739904 C.ar        1 UNL1     0.1310
     9 C         -4.623166   -2.185644   4.070951 C.ar        1 UNL1     0.0226
     10 C         -5.115473   -2.340343   5.372337 C.ar        1 UNL1     0.1343
     11 C         -4.752529   -1.448754   6.380891 C.ar        1 UNL1     0.1007
     12 C         -3.939606   -0.360415   6.053082 C.ar        1 UNL1     0.1389
     13 C         -3.446858   -0.203597   4.743869 C.ar        1 UNL1     0.0229
     14 C         -5.175671   -1.612294   7.790983 C.2        1 UNL1     0.1740
     15 C         -4.514807   -0.69514   8.777713 C.3        1 UNL1     0.0520
     16 C         -4.399864   0.68669   8.14899 C.3        1 UNL1     0.1322
     17 O         -3.608545   0.636387   6.941367 O.3        1 UNL1     -0.4828
     18 C         -5.741005   1.408881   7.998976 C.ar        1 UNL1     -0.0067
     19 C         -6.066501   2.01668   6.768998 C.ar        1 UNL1     -0.0516
     20 C         -7.263594   2.725531   6.6126 C.ar        1 UNL1     -0.0198
     21 C         -8.13819   2.839802   7.678363 C.ar        1 UNL1     0.1169
     22 C         -7.861112   2.224012   8.891981 C.ar        1 UNL1     -0.0198
     23 C         -6.67269   1.499526   9.043074 C.ar        1 UNL1     -0.0516
     24 O         -9.276507   3.569752   7.500011 O.3        1 UNL1     -0.5068
     25 O         -5.953128   -2.485762   8.166618 O.2        1 UNL1     -0.2917
     26 O         -5.938964   -3.397389   5.629441 O.3        1 UNL1     -0.5058
     27 O         -0.235883   -0.203785   2.540229 O.3        1 UNL1     -0.3648
     28 O         0.257787   -1.95206   -0.577784 O.3        1 UNL1     -0.3841
     29 O         -2.45766   0.367547   -0.266948 O.3        1 UNL1     -0.3863
     30 O         -2.461887   -3.306486   -0.227304 O.3        1 UNL1     -0.3829
     31 H         0.611523   -1.855839   1.811802 H        1 UNL1     0.0937
     32 H         0.0   0.0   0.0 H        1 UNL1     0.0671
     33 H         -1.869199   -1.182434   -1.422375 H        1 UNL1     0.0649
     34 H         -3.851213   -1.820311   0.042866 H        1 UNL1     0.0683
     35 H         -3.217643   -2.936257   2.132723 H        1 UNL1     0.1085
     36 H         -4.897275   -2.943736   3.345499 H        1 UNL1     0.0691
     37 H         -2.816604   0.652839   4.514108 H        1 UNL1     0.0691
     38 H         -3.526597   -1.109327   9.004464 H        1 UNL1     0.0385
     39 H         -5.100546   -0.681527   9.703187 H        1 UNL1     0.0385
     40 H         -3.810875   1.307619   8.83751 H        1 UNL1     0.0789
     41 H         -5.392498   1.949193   5.919989 H        1 UNL1     0.0623
     42 H         -7.497709   3.199828   5.662734 H        1 UNL1     0.0654
     43 H         -8.546043   2.294471   9.728532 H        1 UNL1     0.0654
     44 H         -6.493407   1.022474   10.001784 H        1 UNL1     0.0623
     45 H         -9.024961   4.482321   7.284005 H        1 UNL1     0.2921
     46 H         -5.566304   -3.93011   6.34968 H        1 UNL1     0.2922
     47 H         0.508859   0.349121   2.265433 H        1 UNL1     0.2126
     48 H         1.193503   -1.880009   -0.307645 H        1 UNL1     0.2101
     49 H         -2.01902   0.948903   -0.908364 H        1 UNL1     0.2100
     50 H         -2.697455   -3.316345   -1.178158 H        1 UNL1     0.2102
@<TRIPOS>BOND
     1     1     2    1
     2     1     6    1
     3     2     3    1
     4     3     4    1
     5     3    29    1
     6     3    33    1
     7     4     5    1
     8     5     6    1
     9     5     7    1
    10     5    35    1
    11     7     8    1
    12     8     9   ar
    13     8    13   ar
    14     9    10   ar
    15     9    36    1
    16    10    11   ar
    17    10    26    1
    18    11    12   ar
    19    11    14    1
    20    12    13   ar
    21    12    17    1
    22    13    37    1
    23    14    15    1
    24    14    25    2
    25    15    16    1
    26    15    38    1
    27    15    39    1
    28    16    17    1
    29    16    18    1
    30    16    40    1
    31    18    19   ar
    32    18    23   ar
    33    19    20   ar
    34    19    41    1
    35    20    21   ar
    36    20    42    1
    37    21    22   ar
    38    21    24    1
    39    22    23   ar
    40    22    43    1
    41    23    44    1
    42    24    45    1
    43    26    46    1
    44    27    47    1
    45    28    48    1
    46    29    49    1
    47    30    50    1
    48     1    31    1
    49     1    27    1
    50     2    32    1
    51     2    28    1
    52     4    34    1
    53     4    30    1
