@<TRIPOS>MOLECULE
*****
 50 53 0 0 0
SMALL
GASTEIGER

@<TRIPOS>ATOM
     1 C         0.066778   -1.662149   1.415488 C.3        1 UNL1     0.1889
     2 C         -0.638995   -0.434917   0.778521 C.3        1 UNL1     0.1342
     3 C         -1.034701   0.665731   1.774742 C.3        1 UNL1     0.1174
     4 C         -1.457053   0.109475   3.136842 C.3        1 UNL1     0.1456
     5 C         -0.483509   -0.959759   3.665343 C.3        1 UNL1     0.2326
     6 O         -0.366161   -2.020264   2.719601 O.3        1 UNL1     -0.3076
     7 O         0.787801   -0.424593   4.076059 O.3        1 UNL1     -0.4605
     8 C         1.807572   -1.344366   4.242236 C.ar        1 UNL1     0.1310
     9 C         1.810332   -2.392637   5.168745 C.ar        1 UNL1     0.0226
     10 C         2.886202   -3.284809   5.248965 C.ar        1 UNL1     0.1343
     11 C         3.975871   -3.164505   4.387577 C.ar        1 UNL1     0.1007
     12 C         4.003152   -2.097221   3.485942 C.ar        1 UNL1     0.1389
     13 C         2.922447   -1.198712   3.407276 C.ar        1 UNL1     0.0229
     14 C         5.100459   -4.128464   4.372129 C.2        1 UNL1     0.1740
     15 C         6.070651   -3.976131   3.237638 C.3        1 UNL1     0.0520
     16 C         6.308145   -2.490709   3.002959 C.3        1 UNL1     0.1322
     17 O         5.07313   -1.820781   2.666799 O.3        1 UNL1     -0.4828
     18 C         7.115798   -1.812999   4.112523 C.ar        1 UNL1     -0.0067
     19 C         7.56839   -0.49005   3.930365 C.ar        1 UNL1     -0.0516
     20 C         8.349419   0.142545   4.904931 C.ar        1 UNL1     -0.0198
     21 C         8.690042   -0.538107   6.060144 C.ar        1 UNL1     0.1169
     22 C         8.231465   -1.829928   6.28318 C.ar        1 UNL1     -0.0198
     23 C         7.435019   -2.456211   5.317002 C.ar        1 UNL1     -0.0516
     24 O         9.483625   0.096894   6.96976 O.3        1 UNL1     -0.5068
     25 O         5.211283   -5.05099   5.175341 O.2        1 UNL1     -0.2917
     26 O         2.827555   -4.284981   6.175141 O.3        1 UNL1     -0.5058
     27 O         1.481881   -1.607905   1.329888 O.3        1 UNL1     -0.3648
     28 O         -1.84611   -0.885519   0.136232 O.3        1 UNL1     -0.3841
     29 O         -0.006143   1.652741   1.874794 O.3        1 UNL1     -0.3863
     30 O         -2.772124   -0.476308   3.022229 O.3        1 UNL1     -0.3829
     31 H         -0.207053   -2.531076   0.807161 H        1 UNL1     0.0937
     32 H         0.0   0.0   0.0 H        1 UNL1     0.0671
     33 H         -1.906287   1.193333   1.362803 H        1 UNL1     0.0649
     34 H         -1.531186   0.923396   3.866526 H        1 UNL1     0.0683
     35 H         -0.994732   -1.371553   4.544523 H        1 UNL1     0.1085
     36 H         0.968327   -2.573249   5.827932 H        1 UNL1     0.0691
     37 H         2.968567   -0.37548   2.697589 H        1 UNL1     0.0691
     38 H         5.625797   -4.449156   2.355663 H        1 UNL1     0.0385
     39 H         6.995455   -4.509746   3.482121 H        1 UNL1     0.0385
     40 H         6.924527   -2.400407   2.098283 H        1 UNL1     0.0789
     41 H         7.322237   0.062458   3.02826 H        1 UNL1     0.0623
     42 H         8.702282   1.158769   4.747492 H        1 UNL1     0.0654
     43 H         8.479726   -2.366736   7.190987 H        1 UNL1     0.0654
     44 H         7.085481   -3.462063   5.528972 H        1 UNL1     0.0623
     45 H         9.947584   0.821133   6.519277 H        1 UNL1     0.2921
     46 H         3.112102   -5.118994   5.769102 H        1 UNL1     0.2922
     47 H         1.845991   -1.141784   2.095404 H        1 UNL1     0.2126
     48 H         -2.537214   -0.228585   0.347289 H        1 UNL1     0.2101
     49 H         -0.350747   2.51747   1.600411 H        1 UNL1     0.2100
     50 H         -3.116635   -0.623333   3.927441 H        1 UNL1     0.2102
@<TRIPOS>BOND
     1     1     2    1
     2     1     6    1
     3     2     3    1
     4     3     4    1
     5     3    29    1
     6     3    33    1
     7     4     5    1
     8     5     6    1
     9     5     7    1
    10     5    35    1
    11     7     8    1
    12     8     9   ar
    13     8    13   ar
    14     9    10   ar
    15     9    36    1
    16    10    11   ar
    17    10    26    1
    18    11    12   ar
    19    11    14    1
    20    12    13   ar
    21    12    17    1
    22    13    37    1
    23    14    15    1
    24    14    25    2
    25    15    16    1
    26    15    38    1
    27    15    39    1
    28    16    17    1
    29    16    18    1
    30    16    40    1
    31    18    19   ar
    32    18    23   ar
    33    19    20   ar
    34    19    41    1
    35    20    21   ar
    36    20    42    1
    37    21    22   ar
    38    21    24    1
    39    22    23   ar
    40    22    43    1
    41    23    44    1
    42    24    45    1
    43    26    46    1
    44    27    47    1
    45    28    48    1
    46    29    49    1
    47    30    50    1
    48     1    31    1
    49     1    27    1
    50     2    32    1
    51     2    28    1
    52     4    34    1
    53     4    30    1
