@<TRIPOS>MOLECULE
*****
 50 53 0 0 0
SMALL
GASTEIGER

@<TRIPOS>ATOM
     1 C         -0.315495   -1.373884   1.668446 C.3        1 UNL1     0.1889
     2 C         -0.460354   -0.980541   0.173709 C.3        1 UNL1     0.1342
     3 C         -1.906195   -0.954323   -0.345254 C.3        1 UNL1     0.1174
     4 C         -2.785946   -2.031419   0.294294 C.3        1 UNL1     0.1456
     5 C         -2.61977   -2.097974   1.82345 C.3        1 UNL1     0.2326
     6 O         -1.251561   -2.324746   2.15428 O.3        1 UNL1     -0.3076
     7 O         -3.18873   -0.969197   2.511539 O.3        1 UNL1     -0.4605
     8 C         -3.696787   -1.221443   3.773195 C.ar        1 UNL1     0.1310
     9 C         -4.511029   -2.305943   4.116955 C.ar        1 UNL1     0.0226
     10 C         -4.962401   -2.484465   5.43008 C.ar        1 UNL1     0.1343
     11 C         -4.590534   -1.594999   6.437257 C.ar        1 UNL1     0.1007
     12 C         -3.811523   -0.485574   6.097991 C.ar        1 UNL1     0.1389
     13 C         -3.35998   -0.304846   4.777053 C.ar        1 UNL1     0.0229
     14 C         -4.969484   -1.781887   7.856984 C.2        1 UNL1     0.1740
     15 C         -4.301079   -0.859989   8.834167 C.3        1 UNL1     0.0520
     16 C         -4.234669   0.530212   8.217006 C.3        1 UNL1     0.1322
     17 O         -3.477277   0.50955   6.986966 O.3        1 UNL1     -0.4828
     18 C         -5.595157   1.223693   8.11269 C.ar        1 UNL1     -0.0067
     19 C         -5.727413   2.371075   7.303841 C.ar        1 UNL1     -0.0516
     20 C         -6.945308   3.056818   7.223517 C.ar        1 UNL1     -0.0198
     21 C         -8.033897   2.610528   7.95127 C.ar        1 UNL1     0.1169
     22 C         -7.944017   1.464407   8.730479 C.ar        1 UNL1     -0.0198
     23 C         -6.731367   0.767863   8.796532 C.ar        1 UNL1     -0.0516
     24 O         -9.192929   3.325807   7.877633 O.3        1 UNL1     -0.5068
     25 O         -5.716425   -2.676185   8.245308 O.2        1 UNL1     -0.2917
     26 O         -5.754685   -3.562143   5.699302 O.3        1 UNL1     -0.5058
     27 O         -0.202446   -0.25868   2.538116 O.3        1 UNL1     -0.3648
     28 O         0.263099   -1.937712   -0.621995 O.3        1 UNL1     -0.3841
     29 O         -2.463165   0.356503   -0.228408 O.3        1 UNL1     -0.3863
     30 O         -2.443103   -3.317498   -0.266197 O.3        1 UNL1     -0.3829
     31 H         0.646368   -1.889322   1.764482 H        1 UNL1     0.0937
     32 H         0.0   0.0   0.0 H        1 UNL1     0.0671
     33 H         -1.879326   -1.164868   -1.423525 H        1 UNL1     0.0649
     34 H         -3.838498   -1.846721   0.05259 H        1 UNL1     0.0683
     35 H         -3.171362   -3.002022   2.11037 H        1 UNL1     0.1085
     36 H         -4.788971   -3.062765   3.391635 H        1 UNL1     0.0691
     37 H         -2.7556   0.567693   4.538531 H        1 UNL1     0.0691
     38 H         -3.297893   -1.254205   9.028434 H        1 UNL1     0.0385
     39 H         -4.860281   -0.868621   9.775972 H        1 UNL1     0.0385
     40 H         -3.640082   1.157316   8.895038 H        1 UNL1     0.0789
     41 H         -4.885272   2.746795   6.73001 H        1 UNL1     0.0623
     42 H         -7.031371   3.947193   6.605587 H        1 UNL1     0.0654
     43 H         -8.794476   1.097538   9.292652 H        1 UNL1     0.0654
     44 H         -6.699931   -0.129572   9.406833 H        1 UNL1     0.0623
     45 H         -9.027122   4.215509   8.229279 H        1 UNL1     0.2921
     46 H         -5.361173   -4.081424   6.418265 H        1 UNL1     0.2922
     47 H         0.52475   0.313553   2.255991 H        1 UNL1     0.2126
     48 H         1.209262   -1.817982   -0.41182 H        1 UNL1     0.2101
     49 H         -2.036678   0.954063   -0.863093 H        1 UNL1     0.2100
     50 H         -2.711295   -3.316933   -1.208421 H        1 UNL1     0.2102
@<TRIPOS>BOND
     1     1     2    1
     2     1     6    1
     3     2     3    1
     4     3     4    1
     5     3    29    1
     6     3    33    1
     7     4     5    1
     8     5     6    1
     9     5     7    1
    10     5    35    1
    11     7     8    1
    12     8     9   ar
    13     8    13   ar
    14     9    10   ar
    15     9    36    1
    16    10    11   ar
    17    10    26    1
    18    11    12   ar
    19    11    14    1
    20    12    13   ar
    21    12    17    1
    22    13    37    1
    23    14    15    1
    24    14    25    2
    25    15    16    1
    26    15    38    1
    27    15    39    1
    28    16    17    1
    29    16    18    1
    30    16    40    1
    31    18    19   ar
    32    18    23   ar
    33    19    20   ar
    34    19    41    1
    35    20    21   ar
    36    20    42    1
    37    21    22   ar
    38    21    24    1
    39    22    23   ar
    40    22    43    1
    41    23    44    1
    42    24    45    1
    43    26    46    1
    44    27    47    1
    45    28    48    1
    46    29    49    1
    47    30    50    1
    48     1    31    1
    49     1    27    1
    50     2    32    1
    51     2    28    1
    52     4    34    1
    53     4    30    1
