@<TRIPOS>MOLECULE
*****
 50 53 0 0 0
SMALL
GASTEIGER

@<TRIPOS>ATOM
     1 C         -1.487227   -1.560732   0.350821 C.3        1 UNL1     0.1889
     2 C         -0.906231   -0.38679   -0.482391 C.3        1 UNL1     0.1342
     3 C         -1.882399   0.77555   -0.720145 C.3        1 UNL1     0.1174
     4 C         -3.331287   0.30971   -0.883953 C.3        1 UNL1     0.1456
     5 C         -3.747972   -0.711452   0.190276 C.3        1 UNL1     0.2326
     6 O         -2.868049   -1.832973   0.16211 O.3        1 UNL1     -0.3076
     7 O         -3.890982   -0.13723   1.502198 O.3        1 UNL1     -0.4605
     8 C         -4.850418   -0.713761   2.314984 C.ar        1 UNL1     0.1310
     9 C         -6.22186   -0.76006   2.042398 C.ar        1 UNL1     0.0226
     10 C         -7.11407   -1.383716   2.922692 C.ar        1 UNL1     0.1343
     11 C         -6.652957   -1.997635   4.086444 C.ar        1 UNL1     0.1007
     12 C         -5.290947   -1.922235   4.389802 C.ar        1 UNL1     0.1389
     13 C         -4.394395   -1.292794   3.505817 C.ar        1 UNL1     0.0229
     14 C         -7.539874   -2.743072   5.009405 C.2        1 UNL1     0.1740
     15 C         -6.846516   -3.525328   6.085917 C.3        1 UNL1     0.0520
     16 C         -5.686244   -2.693391   6.614697 C.3        1 UNL1     0.1322
     17 O         -4.744884   -2.397239   5.559611 O.3        1 UNL1     -0.4828
     18 C         -6.123471   -1.477112   7.434588 C.ar        1 UNL1     -0.0067
     19 C         -5.155291   -0.732504   8.139144 C.ar        1 UNL1     -0.0516
     20 C         -5.526945   0.35668   8.936336 C.ar        1 UNL1     -0.0198
     21 C         -6.861282   0.706008   9.042831 C.ar        1 UNL1     0.1169
     22 C         -7.834286   0.012775   8.334644 C.ar        1 UNL1     -0.0198
     23 C         -7.460919   -1.064989   7.522807 C.ar        1 UNL1     -0.0516
     24 O         -7.189334   1.7489   9.858404 O.3        1 UNL1     -0.5068
     25 O         -8.759568   -2.799747   4.876665 O.2        1 UNL1     -0.2917
     26 O         -8.439474   -1.393273   2.598968 O.3        1 UNL1     -0.5058
     27 O         -1.148938   -1.498843   1.727236 O.3        1 UNL1     -0.3648
     28 O         -0.518897   -0.891868   -1.773737 O.3        1 UNL1     -0.3841
     29 O         -1.733694   1.776953   0.288424 O.3        1 UNL1     -0.3863
     30 O         -3.490122   -0.29518   -2.18571 O.3        1 UNL1     -0.3829
     31 H         -0.995369   -2.471825   -0.007039 H        1 UNL1     0.0937
     32 H         0.0   0.0   0.0 H        1 UNL1     0.0671
     33 H         -1.597653   1.265326   -1.661825 H        1 UNL1     0.0649
     34 H         -4.007565   1.170875   -0.845982 H        1 UNL1     0.0683
     35 H         -4.728898   -1.067058   -0.149145 H        1 UNL1     0.1085
     36 H         -6.635518   -0.350388   1.127424 H        1 UNL1     0.0691
     37 H         -3.33899   -1.246599   3.765588 H        1 UNL1     0.0691
     38 H         -6.491025   -4.460061   5.639344 H        1 UNL1     0.0385
     39 H         -7.568991   -3.774242   6.870678 H        1 UNL1     0.0385
     40 H         -5.124732   -3.328228   7.313414 H        1 UNL1     0.0789
     41 H         -4.102381   -0.992215   8.079299 H        1 UNL1     0.0623
     42 H         -4.772288   0.915604   9.484159 H        1 UNL1     0.0654
     43 H         -8.880441   0.287241   8.398974 H        1 UNL1     0.0654
     44 H         -8.246147   -1.577465   6.975424 H        1 UNL1     0.0623
     45 H         -6.460615   1.889695   10.484393 H        1 UNL1     0.2921
     46 H         -8.804935   -2.277924   2.757848 H        1 UNL1     0.2922
     47 H         -0.248614   -1.824574   1.865711 H        1 UNL1     0.2126
     48 H         -0.097882   -0.150098   -2.2494 H        1 UNL1     0.2101
     49 H         -2.413453   1.661086   0.971283 H        1 UNL1     0.2100
     50 H         -3.400137   0.41059   -2.859137 H        1 UNL1     0.2102
@<TRIPOS>BOND
     1     1     2    1
     2     1     6    1
     3     2     3    1
     4     3     4    1
     5     3    29    1
     6     3    33    1
     7     4     5    1
     8     5     6    1
     9     5     7    1
    10     5    35    1
    11     7     8    1
    12     8     9   ar
    13     8    13   ar
    14     9    10   ar
    15     9    36    1
    16    10    11   ar
    17    10    26    1
    18    11    12   ar
    19    11    14    1
    20    12    13   ar
    21    12    17    1
    22    13    37    1
    23    14    15    1
    24    14    25    2
    25    15    16    1
    26    15    38    1
    27    15    39    1
    28    16    17    1
    29    16    18    1
    30    16    40    1
    31    18    19   ar
    32    18    23   ar
    33    19    20   ar
    34    19    41    1
    35    20    21   ar
    36    20    42    1
    37    21    22   ar
    38    21    24    1
    39    22    23   ar
    40    22    43    1
    41    23    44    1
    42    24    45    1
    43    26    46    1
    44    27    47    1
    45    28    48    1
    46    29    49    1
    47    30    50    1
    48     1    31    1
    49     1    27    1
    50     2    32    1
    51     2    28    1
    52     4    34    1
    53     4    30    1
