@<TRIPOS>MOLECULE
*****
 50 53 0 0 0
SMALL
GASTEIGER

@<TRIPOS>ATOM
     1 C         -0.33088   -1.32746   1.702696 C.3        1 UNL1     0.1889
     2 C         -0.461946   -0.975494   0.196415 C.3        1 UNL1     0.1342
     3 C         -1.902939   -0.963941   -0.33638 C.3        1 UNL1     0.1174
     4 C         -2.788561   -2.023218   0.324472 C.3        1 UNL1     0.1456
     5 C         -2.636494   -2.047567   1.856349 C.3        1 UNL1     0.2326
     6 O         -1.271396   -2.264802   2.205901 O.3        1 UNL1     -0.3076
     7 O         -3.211764   -0.900395   2.507794 O.3        1 UNL1     -0.4605
     8 C         -3.720825   -1.115283   3.775945 C.ar        1 UNL1     0.1310
     9 C         -4.536397   -2.188481   4.150629 C.ar        1 UNL1     0.0226
     10 C         -4.988727   -2.328235   5.468115 C.ar        1 UNL1     0.1343
     11 C         -4.616528   -1.410204   6.4492 C.ar        1 UNL1     0.1007
     12 C         -3.836163   -0.311924   6.07826 C.ar        1 UNL1     0.1389
     13 C         -3.383656   -0.170193   4.7529 C.ar        1 UNL1     0.0229
     14 C         -4.996507   -1.555291   7.873531 C.2        1 UNL1     0.1740
     15 C         -4.327718   -0.606018   8.823873 C.3        1 UNL1     0.0520
     16 C         -4.259499   0.765557   8.166542 C.3        1 UNL1     0.1322
     17 O         -3.501405   0.708317   6.938093 O.3        1 UNL1     -0.4828
     18 C         -5.619203   1.457098   8.041238 C.ar        1 UNL1     -0.0067
     19 C         -5.999196   2.018757   6.804971 C.ar        1 UNL1     -0.0516
     20 C         -7.214923   2.69948   6.668632 C.ar        1 UNL1     -0.0198
     21 C         -8.054185   2.831448   7.760442 C.ar        1 UNL1     0.1169
     22 C         -7.722978   2.260363   8.982327 C.ar        1 UNL1     -0.0198
     23 C         -6.515788   1.56368   9.114164 C.ar        1 UNL1     -0.0516
     24 O         -9.212364   3.533659   7.599437 O.3        1 UNL1     -0.5068
     25 O         -5.744607   -2.43714   8.287264 O.2        1 UNL1     -0.2917
     26 O         -5.78229   -3.396808   5.768108 O.3        1 UNL1     -0.5058
     27 O         -0.225845   -0.188685   2.542307 O.3        1 UNL1     -0.3648
     28 O         0.268805   -1.954053   -0.565905 O.3        1 UNL1     -0.3841
     29 O         -2.46095   0.34947   -0.260843 O.3        1 UNL1     -0.3863
     30 O         -2.440577   -3.324171   -0.197179 O.3        1 UNL1     -0.3829
     31 H         0.630051   -1.83982   1.821764 H        1 UNL1     0.0937
     32 H         0.0   0.0   0.0 H        1 UNL1     0.0671
     33 H         -1.86613   -1.204114   -1.408145 H        1 UNL1     0.0649
     34 H         -3.838838   -1.845509   0.068077 H        1 UNL1     0.0683
     35 H         -3.190717   -2.943499   2.162978 H        1 UNL1     0.1085
     36 H         -4.8147   -2.965814   3.447478 H        1 UNL1     0.0691
     37 H         -2.778228   0.694414   4.48945 H        1 UNL1     0.0691
     38 H         -3.325058   -0.995436   9.030155 H        1 UNL1     0.0385
     39 H         -4.887483   -0.586654   9.765185 H        1 UNL1     0.0385
     40 H         -3.664659   1.411526   8.826397 H        1 UNL1     0.0789
     41 H         -5.353793   1.936727   5.935272 H        1 UNL1     0.0623
     42 H         -7.491235   3.138468   5.713146 H        1 UNL1     0.0654
     43 H         -8.379792   2.344754   9.839872 H        1 UNL1     0.0654
     44 H         -6.293901   1.12119   10.080505 H        1 UNL1     0.0623
     45 H         -9.958548   2.942318   7.789809 H        1 UNL1     0.2921
     46 H         -5.377162   -3.909365   6.485442 H        1 UNL1     0.2922
     47 H         0.516906   0.365135   2.263985 H        1 UNL1     0.2126
     48 H         1.201597   -1.888366   -0.284272 H        1 UNL1     0.2101
     49 H         -2.022477   0.931673   -0.901604 H        1 UNL1     0.2100
     50 H         -2.674102   -3.339899   -1.148458 H        1 UNL1     0.2102
@<TRIPOS>BOND
     1     1     2    1
     2     1     6    1
     3     2     3    1
     4     3     4    1
     5     3    29    1
     6     3    33    1
     7     4     5    1
     8     5     6    1
     9     5     7    1
    10     5    35    1
    11     7     8    1
    12     8     9   ar
    13     8    13   ar
    14     9    10   ar
    15     9    36    1
    16    10    11   ar
    17    10    26    1
    18    11    12   ar
    19    11    14    1
    20    12    13   ar
    21    12    17    1
    22    13    37    1
    23    14    15    1
    24    14    25    2
    25    15    16    1
    26    15    38    1
    27    15    39    1
    28    16    17    1
    29    16    18    1
    30    16    40    1
    31    18    19   ar
    32    18    23   ar
    33    19    20   ar
    34    19    41    1
    35    20    21   ar
    36    20    42    1
    37    21    22   ar
    38    21    24    1
    39    22    23   ar
    40    22    43    1
    41    23    44    1
    42    24    45    1
    43    26    46    1
    44    27    47    1
    45    28    48    1
    46    29    49    1
    47    30    50    1
    48     1    31    1
    49     1    27    1
    50     2    32    1
    51     2    28    1
    52     4    34    1
    53     4    30    1
