@<TRIPOS>MOLECULE
*****
 50 53 0 0 0
SMALL
GASTEIGER

@<TRIPOS>ATOM
     1 C         -0.363185   -1.364859   1.666151 C.3        1 UNL1     0.1889
     2 C         -0.44566   -0.989274   0.162132 C.3        1 UNL1     0.1342
     3 C         -1.865386   -1.001623   -0.424972 C.3        1 UNL1     0.1174
     4 C         -2.74983   -2.092722   0.183614 C.3        1 UNL1     0.1456
     5 C         -2.655146   -2.1408   1.719546 C.3        1 UNL1     0.2326
     6 O         -1.299425   -2.332541   2.117196 O.3        1 UNL1     -0.3076
     7 O         -3.281756   -1.019035   2.367871 O.3        1 UNL1     -0.4605
     8 C         -3.833465   -1.268304   3.61166 C.ar        1 UNL1     0.1310
     9 C         -4.637085   -2.366519   3.936341 C.ar        1 UNL1     0.0226
     10 C         -5.135773   -2.540267   5.232884 C.ar        1 UNL1     0.1343
     11 C         -4.822984   -1.631688   6.243076 C.ar        1 UNL1     0.1007
     12 C         -4.055272   -0.509278   5.921211 C.ar        1 UNL1     0.1389
     13 C         -3.556153   -0.333408   4.61684 C.ar        1 UNL1     0.0229
     14 C         -5.253333   -1.811023   7.649061 C.2        1 UNL1     0.1740
     15 C         -4.643822   -0.863846   8.640475 C.3        1 UNL1     0.0520
     16 C         -4.58311   0.520517   8.009753 C.3        1 UNL1     0.1322
     17 O         -3.777692   0.502784   6.810563 O.3        1 UNL1     -0.4828
     18 C         -5.95304   1.182761   7.844081 C.ar        1 UNL1     -0.0067
     19 C         -6.297774   1.760215   6.604759 C.ar        1 UNL1     -0.0516
     20 C         -7.523187   2.415204   6.433547 C.ar        1 UNL1     -0.0198
     21 C         -8.407386   2.505716   7.493654 C.ar        1 UNL1     0.1169
     22 C         -8.110601   1.917999   8.716498 C.ar        1 UNL1     -0.0198
     23 C         -6.893156   1.246952   8.882569 C.ar        1 UNL1     -0.0516
     24 O         -9.574863   3.184011   7.300487 O.3        1 UNL1     -0.5068
     25 O         -5.99556   -2.71712   8.018617 O.2        1 UNL1     -0.2917
     26 O         -5.914675   -3.632011   5.483866 O.3        1 UNL1     -0.5058
     27 O         -0.31707   -0.239079   2.528288 O.3        1 UNL1     -0.3648
     28 O         0.336444   -1.936921   -0.58819 O.3        1 UNL1     -0.3841
     29 O         -2.45698   0.296959   -0.348586 O.3        1 UNL1     -0.3863
     30 O         -2.351514   -3.375776   -0.3463 O.3        1 UNL1     -0.3829
     31 H         0.6045   -1.856861   1.813111 H        1 UNL1     0.0937
     32 H         0.0   0.0   0.0 H        1 UNL1     0.0671
     33 H         -1.782444   -1.221767   -1.498461 H        1 UNL1     0.0649
     34 H         -3.793618   -1.934854   -0.109618 H        1 UNL1     0.0683
     35 H         -3.199046   -3.054644   1.989621 H        1 UNL1     0.1085
     36 H         -4.869973   -3.137292   3.209848 H        1 UNL1     0.0691
     37 H         -2.961763   0.549476   4.391656 H        1 UNL1     0.0691
     38 H         -3.640804   -1.233757   8.878481 H        1 UNL1     0.0385
     39 H         -5.239291   -0.874259   9.559761 H        1 UNL1     0.0385
     40 H         -4.029248   1.168035   8.702918 H        1 UNL1     0.0789
     41 H         -5.617104   1.710661   5.759843 H        1 UNL1     0.0623
     42 H         -7.772384   2.8668   5.476482 H        1 UNL1     0.0654
     43 H         -8.80225   1.969894   9.548867 H        1 UNL1     0.0654
     44 H         -6.698668   0.790376   9.84826 H        1 UNL1     0.0623
     45 H         -9.361306   4.102946   7.07099 H        1 UNL1     0.2921
     46 H         -5.525813   -4.147222   6.208267 H        1 UNL1     0.2922
     47 H         0.365641   0.380051   2.234275 H        1 UNL1     0.2126
     48 H         1.257306   -1.849924   -0.274857 H        1 UNL1     0.2101
     49 H         -2.0088   0.900407   -0.96241 H        1 UNL1     0.2100
     50 H         -2.548532   -3.379977   -1.305924 H        1 UNL1     0.2102
@<TRIPOS>BOND
     1     1     2    1
     2     1     6    1
     3     2     3    1
     4     3     4    1
     5     3    29    1
     6     3    33    1
     7     4     5    1
     8     5     6    1
     9     5     7    1
    10     5    35    1
    11     7     8    1
    12     8     9   ar
    13     8    13   ar
    14     9    10   ar
    15     9    36    1
    16    10    11   ar
    17    10    26    1
    18    11    12   ar
    19    11    14    1
    20    12    13   ar
    21    12    17    1
    22    13    37    1
    23    14    15    1
    24    14    25    2
    25    15    16    1
    26    15    38    1
    27    15    39    1
    28    16    17    1
    29    16    18    1
    30    16    40    1
    31    18    19   ar
    32    18    23   ar
    33    19    20   ar
    34    19    41    1
    35    20    21   ar
    36    20    42    1
    37    21    22   ar
    38    21    24    1
    39    22    23   ar
    40    22    43    1
    41    23    44    1
    42    24    45    1
    43    26    46    1
    44    27    47    1
    45    28    48    1
    46    29    49    1
    47    30    50    1
    48     1    31    1
    49     1    27    1
    50     2    32    1
    51     2    28    1
    52     4    34    1
    53     4    30    1
