@<TRIPOS>MOLECULE
*****
 50 53 0 0 0
SMALL
GASTEIGER

@<TRIPOS>ATOM
     1 C         -0.346915   -1.338303   1.690976 C.3        1 UNL1     0.1889
     2 C         -0.467757   -0.974648   0.186618 C.3        1 UNL1     0.1342
     3 C         -1.905641   -0.952161   -0.354167 C.3        1 UNL1     0.1174
     4 C         -2.800093   -2.011935   0.293869 C.3        1 UNL1     0.1456
     5 C         -2.656812   -2.048276   1.826355 C.3        1 UNL1     0.2326
     6 O         -1.294779   -2.274721   2.181963 O.3        1 UNL1     -0.3076
     7 O         -3.230209   -0.90313   2.482997 O.3        1 UNL1     -0.4605
     8 C         -3.754676   -1.126572   3.743368 C.ar        1 UNL1     0.1310
     9 C         -4.582575   -2.196984   4.098477 C.ar        1 UNL1     0.0226
     10 C         -5.050268   -2.346233   5.409542 C.ar        1 UNL1     0.1343
     11 C         -4.681641   -1.440934   6.403719 C.ar        1 UNL1     0.1007
     12 C         -3.888791   -0.345203   6.052225 C.ar        1 UNL1     0.1389
     13 C         -3.42082   -0.1939   4.733309 C.ar        1 UNL1     0.0229
     14 C         -5.078192   -1.597146   7.822344 C.2        1 UNL1     0.1740
     15 C         -4.412425   -0.662636   8.789295 C.3        1 UNL1     0.0520
     16 C         -4.326424   0.714811   8.14649 C.3        1 UNL1     0.1322
     17 O         -3.55549   0.663794   6.925782 O.3        1 UNL1     -0.4828
     18 C         -5.679278   1.418238   8.013445 C.ar        1 UNL1     -0.0067
     19 C         -6.033883   2.010619   6.783993 C.ar        1 UNL1     -0.0516
     20 C         -7.242659   2.702508   6.642178 C.ar        1 UNL1     -0.0198
     21 C         -8.100135   2.815126   7.721937 C.ar        1 UNL1     0.1169
     22 C         -7.794116   2.213981   8.935945 C.ar        1 UNL1     -0.0198
     23 C         -6.593896   1.506298   9.072744 C.ar        1 UNL1     -0.0516
     24 O         -9.250803   3.528672   7.556965 O.3        1 UNL1     -0.5068
     25 O         -5.837565   -2.477141   8.21914 O.2        1 UNL1     -0.2917
     26 O         -5.855313   -3.411451   5.690251 O.3        1 UNL1     -0.5058
     27 O         -0.24113   -0.206251   2.539537 O.3        1 UNL1     -0.3648
     28 O         0.262558   -1.95113   -0.578776 O.3        1 UNL1     -0.3841
     29 O         -2.457719   0.363364   -0.272086 O.3        1 UNL1     -0.3863
     30 O         -2.455454   -3.310701   -0.235394 O.3        1 UNL1     -0.3829
     31 H         0.610841   -1.8562   1.811662 H        1 UNL1     0.0937
     32 H         0.0   0.0   0.0 H        1 UNL1     0.0671
     33 H         -1.863932   -1.184631   -1.42745 H        1 UNL1     0.0649
     34 H         -3.848033   -1.827232   0.032893 H        1 UNL1     0.0683
     35 H         -3.217083   -2.943724   2.123251 H        1 UNL1     0.1085
     36 H         -4.859244   -2.965091   3.384624 H        1 UNL1     0.0691
     37 H         -2.805872   0.668486   4.485069 H        1 UNL1     0.0691
     38 H         -3.415118   -1.061959   9.002479 H        1 UNL1     0.0385
     39 H         -4.98222   -0.648205   9.724658 H        1 UNL1     0.0385
     40 H         -3.733795   1.349504   8.819154 H        1 UNL1     0.0789
     41 H         -5.373819   1.944153   5.924022 H        1 UNL1     0.0623
     42 H         -7.499321   3.165121   5.692375 H        1 UNL1     0.0654
     43 H         -8.465358   2.283164   9.783623 H        1 UNL1     0.0654
     44 H         -6.391863   1.040304   10.032367 H        1 UNL1     0.0623
     45 H         -9.014972   4.442419   7.328566 H        1 UNL1     0.2921
     46 H         -5.463341   -3.932772   6.408579 H        1 UNL1     0.2922
     47 H         0.503227   0.348207   2.266831 H        1 UNL1     0.2126
     48 H         1.197545   -1.877622   -0.306511 H        1 UNL1     0.2101
     49 H         -2.018704   0.94602   -0.912065 H        1 UNL1     0.2100
     50 H         -2.688902   -3.320216   -1.186775 H        1 UNL1     0.2102
@<TRIPOS>BOND
     1     1     2    1
     2     1     6    1
     3     2     3    1
     4     3     4    1
     5     3    29    1
     6     3    33    1
     7     4     5    1
     8     5     6    1
     9     5     7    1
    10     5    35    1
    11     7     8    1
    12     8     9   ar
    13     8    13   ar
    14     9    10   ar
    15     9    36    1
    16    10    11   ar
    17    10    26    1
    18    11    12   ar
    19    11    14    1
    20    12    13   ar
    21    12    17    1
    22    13    37    1
    23    14    15    1
    24    14    25    2
    25    15    16    1
    26    15    38    1
    27    15    39    1
    28    16    17    1
    29    16    18    1
    30    16    40    1
    31    18    19   ar
    32    18    23   ar
    33    19    20   ar
    34    19    41    1
    35    20    21   ar
    36    20    42    1
    37    21    22   ar
    38    21    24    1
    39    22    23   ar
    40    22    43    1
    41    23    44    1
    42    24    45    1
    43    26    46    1
    44    27    47    1
    45    28    48    1
    46    29    49    1
    47    30    50    1
    48     1    31    1
    49     1    27    1
    50     2    32    1
    51     2    28    1
    52     4    34    1
    53     4    30    1
