@<TRIPOS>MOLECULE
*****
 50 53 0 0 0
SMALL
GASTEIGER

@<TRIPOS>ATOM
     1 C         1.667437   0.017676   1.410725 C.3        1 UNL1     0.1889
     2 C         0.153729   0.114515   1.080192 C.3        1 UNL1     0.1342
     3 C         -0.523016   1.412112   1.547872 C.3        1 UNL1     0.1174
     4 C         0.05007   1.938631   2.866002 C.3        1 UNL1     0.1456
     5 C         1.589579   1.937508   2.882526 C.3        1 UNL1     0.2326
     6 O         2.077441   0.622088   2.628501 O.3        1 UNL1     -0.3076
     7 O         2.172785   2.933233   2.022454 O.3        1 UNL1     -0.4605
     8 C         2.64315   2.480527   0.802887 C.ar        1 UNL1     0.1310
     9 C         3.060952   3.292957   -0.256688 C.ar        1 UNL1     0.0226
     10 C         3.538935   2.737638   -1.449607 C.ar        1 UNL1     0.1343
     11 C         3.633145   1.355105   -1.603123 C.ar        1 UNL1     0.1007
     12 C         3.180519   0.53314   -0.56761 C.ar        1 UNL1     0.1389
     13 C         2.697478   1.091737   0.630752 C.ar        1 UNL1     0.0229
     14 C         4.208639   0.716138   -2.809225 C.2        1 UNL1     0.1740
     15 C         4.437792   -0.763672   -2.713316 C.3        1 UNL1     0.0520
     16 C         3.256316   -1.387866   -1.983622 C.3        1 UNL1     0.1322
     17 O         3.126779   -0.838709   -0.653691 O.3        1 UNL1     -0.4828
     18 C         1.9604   -1.389963   -2.798067 C.ar        1 UNL1     -0.0067
     19 C         0.927845   -0.491622   -2.458911 C.ar        1 UNL1     -0.0516
     20 C         -0.288042   -0.499715   -3.152825 C.ar        1 UNL1     -0.0198
     21 C         -0.486008   -1.404195   -4.180712 C.ar        1 UNL1     0.1169
     22 C         0.524121   -2.278661   -4.559905 C.ar        1 UNL1     -0.0198
     23 C         1.746821   -2.258279   -3.878255 C.ar        1 UNL1     -0.0516
     24 O         -1.696772   -1.408232   -4.808754 O.3        1 UNL1     -0.5068
     25 O         4.559085   1.343956   -3.804975 O.2        1 UNL1     -0.2917
     26 O         3.929709   3.585099   -2.444942 O.3        1 UNL1     -0.5058
     27 O         2.507116   0.393606   0.330724 O.3        1 UNL1     -0.3648
     28 O         -0.524875   -0.979121   1.725299 O.3        1 UNL1     -0.3841
     29 O         -0.511875   2.392861   0.508574 O.3        1 UNL1     -0.3863
     30 O         -0.426307   1.114819   3.952322 O.3        1 UNL1     -0.3829
     31 H         1.886499   -1.044453   1.565556 H        1 UNL1     0.0937
     32 H         0.0   0.0   0.0 H        1 UNL1     0.0671
     33 H         -1.584136   1.190598   1.72864 H        1 UNL1     0.0649
     34 H         -0.312861   2.955551   3.051893 H        1 UNL1     0.0683
     35 H         1.84312   2.176328   3.922988 H        1 UNL1     0.1085
     36 H         3.064963   4.374627   -0.17863 H        1 UNL1     0.0691
     37 H         2.350055   0.430118   1.421353 H        1 UNL1     0.0691
     38 H         5.370369   -0.919244   -2.160482 H        1 UNL1     0.0385
     39 H         4.56524   -1.173215   -3.72119 H        1 UNL1     0.0385
     40 H         3.499034   -2.446714   -1.820992 H        1 UNL1     0.0789
     41 H         1.055174   0.221904   -1.650011 H        1 UNL1     0.0623
     42 H         -1.080926   0.18994   -2.874036 H        1 UNL1     0.0654
     43 H         0.385157   -2.980856   -5.373244 H        1 UNL1     0.0654
     44 H         2.517582   -2.948207   -4.20806 H        1 UNL1     0.0623
     45 H         -1.96191   -2.330305   -4.957748 H        1 UNL1     0.2921
     46 H         4.034019   3.087363   -3.271253 H        1 UNL1     0.2922
     47 H         3.431691   0.408629   0.614969 H        1 UNL1     0.2126
     48 H         -1.360106   -0.61919   2.081066 H        1 UNL1     0.2101
     49 H         -1.0191   3.172605   0.785188 H        1 UNL1     0.2100
     50 H         0.067392   0.269009   3.928233 H        1 UNL1     0.2102
@<TRIPOS>BOND
     1     1     2    1
     2     1     6    1
     3     2     3    1
     4     3     4    1
     5     3    29    1
     6     3    33    1
     7     4     5    1
     8     5     6    1
     9     5     7    1
    10     5    35    1
    11     7     8    1
    12     8     9   ar
    13     8    13   ar
    14     9    10   ar
    15     9    36    1
    16    10    11   ar
    17    10    26    1
    18    11    12   ar
    19    11    14    1
    20    12    13   ar
    21    12    17    1
    22    13    37    1
    23    14    15    1
    24    14    25    2
    25    15    16    1
    26    15    38    1
    27    15    39    1
    28    16    17    1
    29    16    18    1
    30    16    40    1
    31    18    19   ar
    32    18    23   ar
    33    19    20   ar
    34    19    41    1
    35    20    21   ar
    36    20    42    1
    37    21    22   ar
    38    21    24    1
    39    22    23   ar
    40    22    43    1
    41    23    44    1
    42    24    45    1
    43    26    46    1
    44    27    47    1
    45    28    48    1
    46    29    49    1
    47    30    50    1
    48     1    31    1
    49     1    27    1
    50     2    32    1
    51     2    28    1
    52     4    34    1
    53     4    30    1
