@<TRIPOS>MOLECULE
*****
 50 53 0 0 0
SMALL
GASTEIGER

@<TRIPOS>ATOM
     1 C         -0.221428   -1.563589   1.508961 C.3        1 UNL1     0.1889
     2 C         -0.811777   -0.511748   0.53169 C.3        1 UNL1     0.1342
     3 C         -1.718953   0.538267   1.19121 C.3        1 UNL1     0.1174
     4 C         -2.5357   -0.029696   2.354594 C.3        1 UNL1     0.1456
     5 C         -1.684026   -0.882086   3.31295 C.3        1 UNL1     0.2326
     6 O         -1.056163   -1.941145   2.593887 O.3        1 UNL1     -0.3076
     7 O         -0.761377   -0.1088   4.101663 O.3        1 UNL1     -0.4605
     8 C         0.470189   0.140163   3.523051 C.ar        1 UNL1     0.1310
     9 C         1.012757   1.407729   3.285992 C.ar        1 UNL1     0.0226
     10 C         2.279406   1.556366   2.708576 C.ar        1 UNL1     0.1343
     11 C         3.04498   0.439688   2.375755 C.ar        1 UNL1     0.1007
     12 C         2.496915   -0.831028   2.56989 C.ar        1 UNL1     0.1389
     13 C         1.222196   -0.980187   3.148055 C.ar        1 UNL1     0.0229
     14 C         4.422799   0.53825   1.840915 C.2        1 UNL1     0.1740
     15 C         5.178081   -0.755136   1.750075 C.3        1 UNL1     0.0520
     16 C         4.223861   -1.837136   1.263559 C.3        1 UNL1     0.1322
     17 O         3.117621   -1.994802   2.179225 O.3        1 UNL1     -0.4828
     18 C         3.81599   -1.684659   -0.203791 C.ar        1 UNL1     -0.0067
     19 C         3.670968   -2.835533   -1.005459 C.ar        1 UNL1     -0.0516
     20 C         3.345394   -2.729029   -2.362891 C.ar        1 UNL1     -0.0198
     21 C         3.169884   -1.479901   -2.930959 C.ar        1 UNL1     0.1169
     22 C         3.273068   -0.329526   -2.159706 C.ar        1 UNL1     -0.0198
     23 C         3.580483   -0.436547   -0.798053 C.ar        1 UNL1     -0.0516
     24 O         2.890853   -1.413923   -4.264446 O.3        1 UNL1     -0.5068
     25 O         4.963977   1.604136   1.558961 O.2        1 UNL1     -0.2917
     26 O         2.750616   2.82017   2.502796 O.3        1 UNL1     -0.5058
     27 O         1.094176   -1.256861   1.942424 O.3        1 UNL1     -0.3648
     28 O         -1.600984   -1.199687   -0.456539 O.3        1 UNL1     -0.3841
     29 O         -0.969186   1.698837   1.555981 O.3        1 UNL1     -0.3863
     30 O         -3.602799   -0.848648   1.828946 O.3        1 UNL1     -0.3829
     31 H         -0.107787   -2.491741   0.938261 H        1 UNL1     0.0937
     32 H         0.0   0.0   0.0 H        1 UNL1     0.0671
     33 H         -2.438915   0.881717   0.435289 H        1 UNL1     0.0649
     34 H         -3.004493   0.786162   2.91585 H        1 UNL1     0.0683
     35 H         -2.420894   -1.343834   3.982049 H        1 UNL1     0.1085
     36 H         0.491262   2.314082   3.573545 H        1 UNL1     0.0691
     37 H         0.817569   -1.98033   3.287639 H        1 UNL1     0.0691
     38 H         5.560501   -0.986266   2.750005 H        1 UNL1     0.0385
     39 H         6.033457   -0.624873   1.078404 H        1 UNL1     0.0385
     40 H         4.763196   -2.792505   1.317482 H        1 UNL1     0.0789
     41 H         3.812555   -3.827074   -0.585401 H        1 UNL1     0.0623
     42 H         3.248053   -3.623424   -2.973297 H        1 UNL1     0.0654
     43 H         3.122821   0.652973   -2.59102 H        1 UNL1     0.0654
     44 H         3.64288   0.482439   -0.223234 H        1 UNL1     0.0623
     45 H         2.051203   -1.8742   -4.425224 H        1 UNL1     0.2921
     46 H         3.649561   2.892536   2.860668 H        1 UNL1     0.2922
     47 H         1.405905   -0.445389   1.517927 H        1 UNL1     0.2126
     48 H         -2.04834   -0.511558   -0.985769 H        1 UNL1     0.2101
     49 H         -1.256606   2.017266   2.42649 H        1 UNL1     0.2100
     50 H         -4.237647   -0.259385   1.371289 H        1 UNL1     0.2102
@<TRIPOS>BOND
     1     1     2    1
     2     1     6    1
     3     2     3    1
     4     3     4    1
     5     3    29    1
     6     3    33    1
     7     4     5    1
     8     5     6    1
     9     5     7    1
    10     5    35    1
    11     7     8    1
    12     8     9   ar
    13     8    13   ar
    14     9    10   ar
    15     9    36    1
    16    10    11   ar
    17    10    26    1
    18    11    12   ar
    19    11    14    1
    20    12    13   ar
    21    12    17    1
    22    13    37    1
    23    14    15    1
    24    14    25    2
    25    15    16    1
    26    15    38    1
    27    15    39    1
    28    16    17    1
    29    16    18    1
    30    16    40    1
    31    18    19   ar
    32    18    23   ar
    33    19    20   ar
    34    19    41    1
    35    20    21   ar
    36    20    42    1
    37    21    22   ar
    38    21    24    1
    39    22    23   ar
    40    22    43    1
    41    23    44    1
    42    24    45    1
    43    26    46    1
    44    27    47    1
    45    28    48    1
    46    29    49    1
    47    30    50    1
    48     1    31    1
    49     1    27    1
    50     2    32    1
    51     2    28    1
    52     4    34    1
    53     4    30    1
