@<TRIPOS>MOLECULE
*****
 50 53 0 0 0
SMALL
GASTEIGER

@<TRIPOS>ATOM
     1 C         -0.173259   -1.435216   -1.637357 C.3        1 UNL1     0.1889
     2 C         0.46336   -0.945186   -0.309003 C.3        1 UNL1     0.1342
     3 C         1.988187   -0.763463   -0.357419 C.3        1 UNL1     0.1174
     4 C         2.680741   -1.79509   -1.251418 C.3        1 UNL1     0.1456
     5 C         1.978543   -1.963956   -2.611111 C.3        1 UNL1     0.2326
     6 O         0.614371   -2.327534   -2.411826 O.3        1 UNL1     -0.3076
     7 O         2.140569   -0.831573   -3.484482 O.3        1 UNL1     -0.4605
     8 C         2.881965   -1.051755   -4.631383 C.ar        1 UNL1     0.1310
     9 C         2.462004   -0.766355   -5.935024 C.ar        1 UNL1     0.0226
     10 C         3.294958   -1.010327   -7.033463 C.ar        1 UNL1     0.1343
     11 C         4.57846   -1.523951   -6.852753 C.ar        1 UNL1     0.1007
     12 C         4.993656   -1.851279   -5.559211 C.ar        1 UNL1     0.1389
     13 C         4.154942   -1.608339   -4.455141 C.ar        1 UNL1     0.0229
     14 C         5.530958   -1.722664   -7.96963 C.2        1 UNL1     0.1740
     15 C         6.935467   -2.069362   -7.571255 C.3        1 UNL1     0.0520
     16 C         6.878211   -3.047928   -6.406314 C.3        1 UNL1     0.1322
     17 O         6.193782   -2.461571   -5.277238 O.3        1 UNL1     -0.4828
     18 C         6.37994   -4.441629   -6.796247 C.ar        1 UNL1     -0.0067
     19 C         6.684771   -4.953626   -8.074195 C.ar        1 UNL1     -0.0516
     20 C         6.204804   -6.204571   -8.480066 C.ar        1 UNL1     -0.0198
     21 C         5.414701   -6.948303   -7.621913 C.ar        1 UNL1     0.1169
     22 C         5.125109   -6.485731   -6.344806 C.ar        1 UNL1     -0.0198
     23 C         5.62027   -5.243   -5.931897 C.ar        1 UNL1     -0.0516
     24 O         4.934044   -8.145089   -8.065841 O.3        1 UNL1     -0.5068
     25 O         5.237434   -1.542951   -9.148627 O.2        1 UNL1     -0.2917
     26 O         2.825018   -0.710886   -8.278885 O.3        1 UNL1     -0.5058
     27 O         -0.70743   -0.386105   -2.429073 O.3        1 UNL1     -0.3648
     28 O         0.179799   -1.914122   0.71738 O.3        1 UNL1     -0.3841
     29 O         2.327893   0.58189   -0.699116 O.3        1 UNL1     -0.3863
     30 O         2.697874   -3.071618   -0.576234 O.3        1 UNL1     -0.3829
     31 H         -1.046398   -2.037009   -1.362487 H        1 UNL1     0.0937
     32 H         0.0   0.0   0.0 H        1 UNL1     0.0671
     33 H         2.37619   -0.912982   0.65984 H        1 UNL1     0.0649
     34 H         3.724496   -1.505943   -1.416855 H        1 UNL1     0.0683
     35 H         2.477507   -2.831665   -3.06055 H        1 UNL1     0.1085
     36 H         1.497335   -0.313944   -6.137156 H        1 UNL1     0.0691
     37 H         4.501279   -1.873063   -3.458413 H        1 UNL1     0.0691
     38 H         7.436688   -1.139578   -7.281762 H        1 UNL1     0.0385
     39 H         7.461509   -2.486352   -8.436805 H        1 UNL1     0.0385
     40 H         7.908907   -3.195209   -6.056321 H        1 UNL1     0.0789
     41 H         7.295405   -4.385191   -8.76965 H        1 UNL1     0.0623
     42 H         6.436896   -6.5832   -9.472429 H        1 UNL1     0.0654
     43 H         4.519809   -7.066701   -5.659243 H        1 UNL1     0.0654
     44 H         5.383169   -4.917417   -4.92362 H        1 UNL1     0.0623
     45 H         4.533102   -8.612125   -7.314948 H        1 UNL1     0.2921
     46 H         2.036757   -0.150519   -8.201139 H        1 UNL1     0.2922
     47 H         -1.645323   -0.544213   -2.60576 H        1 UNL1     0.2126
     48 H         -0.731352   -1.73977   1.022564 H        1 UNL1     0.2101
     49 H         2.557078   1.07821   0.102716 H        1 UNL1     0.2100
     50 H         2.771481   -2.902817   0.385951 H        1 UNL1     0.2102
@<TRIPOS>BOND
     1     1     2    1
     2     1     6    1
     3     2     3    1
     4     3     4    1
     5     3    29    1
     6     3    33    1
     7     4     5    1
     8     5     6    1
     9     5     7    1
    10     5    35    1
    11     7     8    1
    12     8     9   ar
    13     8    13   ar
    14     9    10   ar
    15     9    36    1
    16    10    11   ar
    17    10    26    1
    18    11    12   ar
    19    11    14    1
    20    12    13   ar
    21    12    17    1
    22    13    37    1
    23    14    15    1
    24    14    25    2
    25    15    16    1
    26    15    38    1
    27    15    39    1
    28    16    17    1
    29    16    18    1
    30    16    40    1
    31    18    19   ar
    32    18    23   ar
    33    19    20   ar
    34    19    41    1
    35    20    21   ar
    36    20    42    1
    37    21    22   ar
    38    21    24    1
    39    22    23   ar
    40    22    43    1
    41    23    44    1
    42    24    45    1
    43    26    46    1
    44    27    47    1
    45    28    48    1
    46    29    49    1
    47    30    50    1
    48     1    31    1
    49     1    27    1
    50     2    32    1
    51     2    28    1
    52     4    34    1
    53     4    30    1
