@<TRIPOS>MOLECULE
*****
 50 53 0 0 0
SMALL
GASTEIGER

@<TRIPOS>ATOM
     1 C         0.905681   -1.90059   -0.581639 C.3        1 UNL1     0.1889
     2 C         -0.263079   -0.879046   -0.601356 C.3        1 UNL1     0.1342
     3 C         -1.609385   -1.435473   -0.113182 C.3        1 UNL1     0.1174
     4 C         -1.815884   -2.904769   -0.489538 C.3        1 UNL1     0.1456
     5 C         -0.579274   -3.770796   -0.187615 C.3        1 UNL1     0.2326
     6 O         0.558752   -3.247322   -0.868601 O.3        1 UNL1     -0.3076
     7 O         -0.352429   -3.975622   1.218766 O.3        1 UNL1     -0.4605
     8 C         0.90055   -3.624558   1.688156 C.ar        1 UNL1     0.1310
     9 C         1.971602   -3.195968   0.896664 C.ar        1 UNL1     0.0226
     10 C         3.2   -2.845476   1.469461 C.ar        1 UNL1     0.1343
     11 C         3.379804   -2.892378   2.851239 C.ar        1 UNL1     0.1007
     12 C         2.330756   -3.357925   3.648452 C.ar        1 UNL1     0.1389
     13 C         1.096563   -3.712804   3.072031 C.ar        1 UNL1     0.0229
     14 C         4.628644   -2.45373   3.516174 C.2        1 UNL1     0.1740
     15 C         4.569332   -2.360783   5.012634 C.3        1 UNL1     0.0520
     16 C         3.77745   -3.55017   5.538218 C.3        1 UNL1     0.1322
     17 O         2.433953   -3.54677   5.007111 O.3        1 UNL1     -0.4828
     18 C         4.510155   -4.887046   5.401724 C.ar        1 UNL1     -0.0067
     19 C         4.366478   -5.861679   6.410516 C.ar        1 UNL1     -0.0516
     20 C         5.059758   -7.075918   6.34016 C.ar        1 UNL1     -0.0198
     21 C         5.903528   -7.323966   5.272287 C.ar        1 UNL1     0.1169
     22 C         6.039964   -6.39766   4.246528 C.ar        1 UNL1     -0.0198
     23 C         5.332568   -5.191034   4.307365 C.ar        1 UNL1     -0.0516
     24 O         6.591299   -8.501733   5.256897 O.3        1 UNL1     -0.5068
     25 O         5.63461   -2.105761   2.903446 O.2        1 UNL1     -0.2917
     26 O         4.204744   -2.436553   0.6419 O.3        1 UNL1     -0.5058
     27 O         1.720705   -1.804913   0.575672 O.3        1 UNL1     -0.3648
     28 O         -0.451697   -0.427843   -1.95544 O.3        1 UNL1     -0.3841
     29 O         -1.781539   -1.192718   1.284518 O.3        1 UNL1     -0.3863
     30 O         -2.112719   -2.995305   -1.899992 O.3        1 UNL1     -0.3829
     31 H         1.574013   -1.627231   -1.405463 H        1 UNL1     0.0937
     32 H         0.0   0.0   0.0 H        1 UNL1     0.0671
     33 H         -2.40746   -0.865264   -0.608822 H        1 UNL1     0.0649
     34 H         -2.681003   -3.310173   0.046761 H        1 UNL1     0.0683
     35 H         -0.812859   -4.736728   -0.652687 H        1 UNL1     0.1085
     36 H         1.877696   -3.084574   -0.177996 H        1 UNL1     0.0691
     37 H         0.296026   -4.073314   3.714421 H        1 UNL1     0.0691
     38 H         4.077615   -1.415647   5.26652 H        1 UNL1     0.0385
     39 H         5.589198   -2.333636   5.411277 H        1 UNL1     0.0385
     40 H         3.646067   -3.399759   6.618327 H        1 UNL1     0.0789
     41 H         3.717298   -5.687237   7.263619 H        1 UNL1     0.0623
     42 H         4.949777   -7.814537   7.130322 H        1 UNL1     0.0654
     43 H         6.686441   -6.588033   3.398155 H        1 UNL1     0.0654
     44 H         5.454831   -4.494748   3.483301 H        1 UNL1     0.0623
     45 H         6.841122   -8.722938   6.168694 H        1 UNL1     0.2921
     46 H         3.846219   -1.834633   -0.029341 H        1 UNL1     0.2922
     47 H         2.250414   -2.60772   0.679442 H        1 UNL1     0.2126
     48 H         -0.077566   0.472892   -2.004787 H        1 UNL1     0.2101
     49 H         -2.688698   -1.414256   1.548671 H        1 UNL1     0.2100
     50 H         -2.566893   -3.848747   -2.058346 H        1 UNL1     0.2102
@<TRIPOS>BOND
     1     1     2    1
     2     1     6    1
     3     2     3    1
     4     3     4    1
     5     3    29    1
     6     3    33    1
     7     4     5    1
     8     5     6    1
     9     5     7    1
    10     5    35    1
    11     7     8    1
    12     8     9   ar
    13     8    13   ar
    14     9    10   ar
    15     9    36    1
    16    10    11   ar
    17    10    26    1
    18    11    12   ar
    19    11    14    1
    20    12    13   ar
    21    12    17    1
    22    13    37    1
    23    14    15    1
    24    14    25    2
    25    15    16    1
    26    15    38    1
    27    15    39    1
    28    16    17    1
    29    16    18    1
    30    16    40    1
    31    18    19   ar
    32    18    23   ar
    33    19    20   ar
    34    19    41    1
    35    20    21   ar
    36    20    42    1
    37    21    22   ar
    38    21    24    1
    39    22    23   ar
    40    22    43    1
    41    23    44    1
    42    24    45    1
    43    26    46    1
    44    27    47    1
    45    28    48    1
    46    29    49    1
    47    30    50    1
    48     1    31    1
    49     1    27    1
    50     2    32    1
    51     2    28    1
    52     4    34    1
    53     4    30    1
