@<TRIPOS>MOLECULE
*****
 50 53 0 0 0
SMALL
GASTEIGER

@<TRIPOS>ATOM
     1 C         0.443512   -1.166258   -1.792747 C.3        1 UNL1     0.1889
     2 C         -0.466629   -0.215866   -0.969134 C.3        1 UNL1     0.1342
     3 C         -1.892323   -0.737803   -0.733671 C.3        1 UNL1     0.1174
     4 C         -2.431195   -1.546444   -1.916393 C.3        1 UNL1     0.1456
     5 C         -1.413869   -2.577039   -2.439161 C.3        1 UNL1     0.2326
     6 O         -0.202736   -1.920903   -2.807277 O.3        1 UNL1     -0.3076
     7 O         -1.207801   -3.684389   -1.543263 O.3        1 UNL1     -0.4605
     8 C         0.04875   -3.776405   -0.972175 C.ar        1 UNL1     0.1310
     9 C         0.318484   -4.226943   0.324575 C.ar        1 UNL1     0.0226
     10 C         1.630638   -4.299951   0.807094 C.ar        1 UNL1     0.1343
     11 C         2.707743   -3.946363   -0.004485 C.ar        1 UNL1     0.1007
     12 C         2.448244   -3.456101   -1.287095 C.ar        1 UNL1     0.1389
     13 C         1.128618   -3.380287   -1.771108 C.ar        1 UNL1     0.0229
     14 C         4.118738   -4.083388   0.425015 C.2        1 UNL1     0.1740
     15 C         5.147221   -3.870721   -0.646687 C.3        1 UNL1     0.0520
     16 C         4.702412   -2.70294   -1.516393 C.3        1 UNL1     0.1322
     17 O         3.424302   -2.978772   -2.130739 O.3        1 UNL1     -0.4828
     18 C         4.789691   -1.344778   -0.816035 C.ar        1 UNL1     -0.0067
     19 C         5.980099   -0.982955   -0.152538 C.ar        1 UNL1     -0.0516
     20 C         6.077122   0.231072   0.537886 C.ar        1 UNL1     -0.0198
     21 C         4.990798   1.086695   0.578354 C.ar        1 UNL1     0.1169
     22 C         3.816242   0.773431   -0.093303 C.ar        1 UNL1     -0.0198
     23 C         3.725169   -0.432141   -0.799249 C.ar        1 UNL1     -0.0516
     24 O         5.109734   2.242827   1.292226 O.3        1 UNL1     -0.5068
     25 O         4.450746   -4.426492   1.556622 O.2        1 UNL1     -0.2917
     26 O         1.825765   -4.746889   2.081361 O.3        1 UNL1     -0.5058
     27 O         1.284525   -1.979678   -0.990355 O.3        1 UNL1     -0.3648
     28 O         -0.579067   1.033597   -1.675465 O.3        1 UNL1     -0.3841
     29 O         -1.974849   -1.446298   0.504617 O.3        1 UNL1     -0.3863
     30 O         -2.771761   -0.644077   -2.991306 O.3        1 UNL1     -0.3829
     31 H         1.137806   -0.528667   -2.350879 H        1 UNL1     0.0937
     32 H         0.0   0.0   0.0 H        1 UNL1     0.0671
     33 H         -2.552969   0.132554   -0.616429 H        1 UNL1     0.0649
     34 H         -3.353154   -2.062943   -1.627218 H        1 UNL1     0.0683
     35 H         -1.868239   -2.950979   -3.365225 H        1 UNL1     0.1085
     36 H         -0.470708   -4.569114   0.985041 H        1 UNL1     0.0691
     37 H         0.953173   -2.994017   -2.772861 H        1 UNL1     0.0691
     38 H         5.21337   -4.795116   -1.230335 H        1 UNL1     0.0385
     39 H         6.121224   -3.691133   -0.178877 H        1 UNL1     0.0385
     40 H         5.404378   -2.641046   -2.358968 H        1 UNL1     0.0789
     41 H         6.843839   -1.641376   -0.161751 H        1 UNL1     0.0623
     42 H         6.996493   0.493347   1.055555 H        1 UNL1     0.0654
     43 H         2.964584   1.44308   -0.080712 H        1 UNL1     0.0654
     44 H         2.796093   -0.639836   -1.321287 H        1 UNL1     0.0623
     45 H         4.368155   2.824697   1.059408 H        1 UNL1     0.2921
     46 H         1.446922   -5.635301   2.17417 H        1 UNL1     0.2922
     47 H         0.819053   -2.25298   -0.187546 H        1 UNL1     0.2126
     48 H         -0.783388   1.715457   -1.006845 H        1 UNL1     0.2101
     49 H         -2.895122   -1.70041   0.67874 H        1 UNL1     0.2100
     50 H         -3.239947   -1.159285   -3.680563 H        1 UNL1     0.2102
@<TRIPOS>BOND
     1     1     2    1
     2     1     6    1
     3     2     3    1
     4     3     4    1
     5     3    29    1
     6     3    33    1
     7     4     5    1
     8     5     6    1
     9     5     7    1
    10     5    35    1
    11     7     8    1
    12     8     9   ar
    13     8    13   ar
    14     9    10   ar
    15     9    36    1
    16    10    11   ar
    17    10    26    1
    18    11    12   ar
    19    11    14    1
    20    12    13   ar
    21    12    17    1
    22    13    37    1
    23    14    15    1
    24    14    25    2
    25    15    16    1
    26    15    38    1
    27    15    39    1
    28    16    17    1
    29    16    18    1
    30    16    40    1
    31    18    19   ar
    32    18    23   ar
    33    19    20   ar
    34    19    41    1
    35    20    21   ar
    36    20    42    1
    37    21    22   ar
    38    21    24    1
    39    22    23   ar
    40    22    43    1
    41    23    44    1
    42    24    45    1
    43    26    46    1
    44    27    47    1
    45    28    48    1
    46    29    49    1
    47    30    50    1
    48     1    31    1
    49     1    27    1
    50     2    32    1
    51     2    28    1
    52     4    34    1
    53     4    30    1
