@<TRIPOS>MOLECULE
*****
 50 53 0 0 0
SMALL
GASTEIGER

@<TRIPOS>ATOM
     1 C         -0.434367   1.958347   0.864296 C.3        1 UNL1     0.1889
     2 C         -0.18476   1.023349   -0.349547 C.3        1 UNL1     0.1342
     3 C         0.970248   1.456198   -1.265551 C.3        1 UNL1     0.1174
     4 C         1.099778   2.977212   -1.378936 C.3        1 UNL1     0.1456
     5 C         1.024902   3.679554   -0.010918 C.3        1 UNL1     0.2326
     6 O         -0.195732   3.340599   0.643323 O.3        1 UNL1     -0.3076
     7 O         2.1866   3.460894   0.810036 O.3        1 UNL1     -0.4605
     8 C         2.934838   4.584184   1.113166 C.ar        1 UNL1     0.1310
     9 C         2.658054   5.884256   0.676699 C.ar        1 UNL1     0.0226
     10 C         3.468612   6.961938   1.052863 C.ar        1 UNL1     0.1343
     11 C         4.562975   6.769049   1.894885 C.ar        1 UNL1     0.1007
     12 C         4.873367   5.469381   2.303912 C.ar        1 UNL1     0.1389
     13 C         4.05974   4.385569   1.923393 C.ar        1 UNL1     0.0229
     14 C         5.403387   7.883258   2.391272 C.2        1 UNL1     0.1740
     15 C         6.393728   7.523494   3.459609 C.3        1 UNL1     0.0520
     16 C         7.006396   6.173332   3.113691 C.3        1 UNL1     0.1322
     17 O         5.988167   5.150858   3.044203 O.3        1 UNL1     -0.4828
     18 C         7.947322   6.214603   1.907176 C.ar        1 UNL1     -0.0067
     19 C         9.180787   5.534041   1.96728 C.ar        1 UNL1     -0.0516
     20 C         10.085091   5.590505   0.900036 C.ar        1 UNL1     -0.0198
     21 C         9.771548   6.328473   -0.227316 C.ar        1 UNL1     0.1169
     22 C         8.550414   6.982055   -0.329797 C.ar        1 UNL1     -0.0198
     23 C         7.638097   6.910615   0.729746 C.ar        1 UNL1     -0.0516
     24 O         10.693046   6.391312   -1.230956 O.3        1 UNL1     -0.5068
     25 O         5.264724   9.048388   2.028324 O.2        1 UNL1     -0.2917
     26 O         3.14479   8.204704   0.592147 O.3        1 UNL1     -0.5058
     27 O         0.177732   1.506037   2.0616 O.3        1 UNL1     -0.3648
     28 O         -1.379091   0.989979   -1.152768 O.3        1 UNL1     -0.3841
     29 O         2.191112   0.824358   -0.875161 O.3        1 UNL1     -0.3863
     30 O         0.038432   3.481777   -2.218369 O.3        1 UNL1     -0.3829
     31 H         -1.508073   1.914701   1.077201 H        1 UNL1     0.0937
     32 H         0.0   0.0   0.0 H        1 UNL1     0.0671
     33 H         0.756609   1.079273   -2.275504 H        1 UNL1     0.0649
     34 H         2.045578   3.236627   -1.867369 H        1 UNL1     0.0683
     35 H         0.96591   4.745606   -0.263764 H        1 UNL1     0.1085
     36 H         1.790058   6.108157   0.066313 H        1 UNL1     0.0691
     37 H         4.323566   3.383354   2.25423 H        1 UNL1     0.0691
     38 H         5.853166   7.479777   4.411139 H        1 UNL1     0.0385
     39 H         7.148101   8.314461   3.530805 H        1 UNL1     0.0385
     40 H         7.636117   5.876398   3.96328 H        1 UNL1     0.0789
     41 H         9.454284   4.95545   2.844823 H        1 UNL1     0.0623
     42 H         11.038129   5.071149   0.963274 H        1 UNL1     0.0654
     43 H         8.28838   7.550415   -1.214226 H        1 UNL1     0.0654
     44 H         6.68913   7.424692   0.611301 H        1 UNL1     0.0623
     45 H         11.24503   5.593549   -1.190896 H        1 UNL1     0.2921
     46 H         2.683154   8.697812   1.288672 H        1 UNL1     0.2922
     47 H         -0.236138   1.925976   2.828557 H        1 UNL1     0.2126
     48 H         -1.188452   1.507021   -1.959029 H        1 UNL1     0.2101
     49 H         2.786048   0.755709   -1.638792 H        1 UNL1     0.2100
     50 H         -0.297543   2.737556   -2.759633 H        1 UNL1     0.2102
@<TRIPOS>BOND
     1     1     2    1
     2     1     6    1
     3     2     3    1
     4     3     4    1
     5     3    29    1
     6     3    33    1
     7     4     5    1
     8     5     6    1
     9     5     7    1
    10     5    35    1
    11     7     8    1
    12     8     9   ar
    13     8    13   ar
    14     9    10   ar
    15     9    36    1
    16    10    11   ar
    17    10    26    1
    18    11    12   ar
    19    11    14    1
    20    12    13   ar
    21    12    17    1
    22    13    37    1
    23    14    15    1
    24    14    25    2
    25    15    16    1
    26    15    38    1
    27    15    39    1
    28    16    17    1
    29    16    18    1
    30    16    40    1
    31    18    19   ar
    32    18    23   ar
    33    19    20   ar
    34    19    41    1
    35    20    21   ar
    36    20    42    1
    37    21    22   ar
    38    21    24    1
    39    22    23   ar
    40    22    43    1
    41    23    44    1
    42    24    45    1
    43    26    46    1
    44    27    47    1
    45    28    48    1
    46    29    49    1
    47    30    50    1
    48     1    31    1
    49     1    27    1
    50     2    32    1
    51     2    28    1
    52     4    34    1
    53     4    30    1
