@<TRIPOS>MOLECULE
*****
 50 53 0 0 0
SMALL
GASTEIGER

@<TRIPOS>ATOM
     1 C         -0.327483   -1.329174   1.702015 C.3        1 UNL1     0.1889
     2 C         -0.4609   -0.976029   0.196217 C.3        1 UNL1     0.1342
     3 C         -1.902633   -0.965169   -0.334587 C.3        1 UNL1     0.1174
     4 C         -2.786502   -2.025714   0.326576 C.3        1 UNL1     0.1456
     5 C         -2.63231   -2.051248   1.858221 C.3        1 UNL1     0.2326
     6 O         -1.266561   -2.267693   2.205712 O.3        1 UNL1     -0.3076
     7 O         -3.207596   -0.90509   2.511435 O.3        1 UNL1     -0.4605
     8 C         -3.714743   -1.121464   3.780101 C.ar        1 UNL1     0.1310
     9 C         -4.528945   -2.195631   4.154989 C.ar        1 UNL1     0.0226
     10 C         -4.979352   -2.336868   5.472975 C.ar        1 UNL1     0.1343
     11 C         -4.606534   -1.419377   6.454331 C.ar        1 UNL1     0.1007
     12 C         -3.827554   -0.32016   6.083257 C.ar        1 UNL1     0.1389
     13 C         -3.376982   -0.176939   4.757398 C.ar        1 UNL1     0.0229
     14 C         -4.98444   -1.565981   7.879058 C.2        1 UNL1     0.1740
     15 C         -4.3151   -0.616986   8.829291 C.3        1 UNL1     0.0520
     16 C         -4.248875   0.755203   8.173037 C.3        1 UNL1     0.1322
     17 O         -3.492426   0.699614   6.943499 O.3        1 UNL1     -0.4828
     18 C         -5.6093   1.445767   8.050193 C.ar        1 UNL1     -0.0067
     19 C         -5.991439   2.008177   6.814929 C.ar        1 UNL1     -0.0516
     20 C         -7.207892   2.688048   6.680841 C.ar        1 UNL1     -0.0198
     21 C         -8.045758   2.818416   7.773916 C.ar        1 UNL1     0.1169
     22 C         -7.712417   2.246554   8.994856 C.ar        1 UNL1     -0.0198
     23 C         -6.504493   1.55072   9.124441 C.ar        1 UNL1     -0.0516
     24 O         -9.204714   3.519842   7.615102 O.3        1 UNL1     -0.5068
     25 O         -5.731268   -2.448778   8.293067 O.2        1 UNL1     -0.2917
     26 O         -5.771652   -3.406327   5.773147 O.3        1 UNL1     -0.5058
     27 O         -0.2222   -0.191032   2.542453 O.3        1 UNL1     -0.3648
     28 O         0.269581   -1.953355   -0.567942 O.3        1 UNL1     -0.3841
     29 O         -2.461584   0.347733   -0.257163 O.3        1 UNL1     -0.3863
     30 O         -2.438201   -3.325944   -0.196663 O.3        1 UNL1     -0.3829
     31 H         0.634018   -1.84087   1.819325 H        1 UNL1     0.0937
     32 H         0.0   0.0   0.0 H        1 UNL1     0.0671
     33 H         -1.867106   -1.204399   -1.406607 H        1 UNL1     0.0649
     34 H         -3.837272   -1.848623   0.071777 H        1 UNL1     0.0683
     35 H         -3.185399   -2.947882   2.164847 H        1 UNL1     0.1085
     36 H         -4.807596   -2.972586   3.451558 H        1 UNL1     0.0691
     37 H         -2.772604   0.688373   4.493855 H        1 UNL1     0.0691
     38 H         -3.311848   -1.005782   9.033863 H        1 UNL1     0.0385
     39 H         -4.873585   -0.598871   9.771387 H        1 UNL1     0.0385
     40 H         -3.653642   1.401083   8.832626 H        1 UNL1     0.0789
     41 H         -5.347166   1.927403   5.944274 H        1 UNL1     0.0623
     42 H         -7.485867   3.12763   5.726111 H        1 UNL1     0.0654
     43 H         -8.368118   2.329691   9.853376 H        1 UNL1     0.0654
     44 H         -6.280926   1.107583   10.090097 H        1 UNL1     0.0623
     45 H         -9.950165   2.927745   7.805995 H        1 UNL1     0.2921
     46 H         -5.36513   -3.919173   6.489485 H        1 UNL1     0.2922
     47 H         0.519728   0.363616   2.263584 H        1 UNL1     0.2126
     48 H         1.202706   -1.887165   -0.287535 H        1 UNL1     0.2101
     49 H         -2.024455   0.930831   -0.898029 H        1 UNL1     0.2100
     50 H         -2.673022   -3.341047   -1.147633 H        1 UNL1     0.2102
@<TRIPOS>BOND
     1     1     2    1
     2     1     6    1
     3     2     3    1
     4     3     4    1
     5     3    29    1
     6     3    33    1
     7     4     5    1
     8     5     6    1
     9     5     7    1
    10     5    35    1
    11     7     8    1
    12     8     9   ar
    13     8    13   ar
    14     9    10   ar
    15     9    36    1
    16    10    11   ar
    17    10    26    1
    18    11    12   ar
    19    11    14    1
    20    12    13   ar
    21    12    17    1
    22    13    37    1
    23    14    15    1
    24    14    25    2
    25    15    16    1
    26    15    38    1
    27    15    39    1
    28    16    17    1
    29    16    18    1
    30    16    40    1
    31    18    19   ar
    32    18    23   ar
    33    19    20   ar
    34    19    41    1
    35    20    21   ar
    36    20    42    1
    37    21    22   ar
    38    21    24    1
    39    22    23   ar
    40    22    43    1
    41    23    44    1
    42    24    45    1
    43    26    46    1
    44    27    47    1
    45    28    48    1
    46    29    49    1
    47    30    50    1
    48     1    31    1
    49     1    27    1
    50     2    32    1
    51     2    28    1
    52     4    34    1
    53     4    30    1
