@<TRIPOS>MOLECULE
*****
 50 53 0 0 0
SMALL
GASTEIGER

@<TRIPOS>ATOM
     1 C         -0.266721   -1.941201   -0.965093 C.3        1 UNL1     0.1889
     2 C         -0.460392   -0.96897   0.229562 C.3        1 UNL1     0.1342
     3 C         0.091147   -1.481047   1.568982 C.3        1 UNL1     0.1174
     4 C         -0.054323   -2.996274   1.730363 C.3        1 UNL1     0.1456
     5 C         0.394728   -3.769151   0.476817 C.3        1 UNL1     0.2326
     6 O         -0.344797   -3.325528   -0.658599 O.3        1 UNL1     -0.3076
     7 O         1.818649   -3.746386   0.268844 O.3        1 UNL1     -0.4605
     8 C         2.238575   -3.727057   -1.049039 C.ar        1 UNL1     0.1310
     9 C         3.499909   -4.126739   -1.503562 C.ar        1 UNL1     0.0226
     10 C         3.825096   -4.086026   -2.864627 C.ar        1 UNL1     0.1343
     11 C         2.887783   -3.666715   -3.807742 C.ar        1 UNL1     0.1007
     12 C         1.63879   -3.22633   -3.361803 C.ar        1 UNL1     0.1389
     13 C         1.312967   -3.264865   -1.99294 C.ar        1 UNL1     0.0229
     14 C         3.149454   -3.683201   -5.26562 C.2        1 UNL1     0.1740
     15 C         1.961336   -3.413814   -6.141609 C.3        1 UNL1     0.0520
     16 C         1.135819   -2.30373   -5.505848 C.3        1 UNL1     0.1322
     17 O         0.680033   -2.692317   -4.191188 O.3        1 UNL1     -0.4828
     18 C         1.80414   -0.928005   -5.5646 C.ar        1 UNL1     -0.0067
     19 C         1.980508   -0.296495   -6.81292 C.ar        1 UNL1     -0.0516
     20 C         2.630224   0.940028   -6.906956 C.ar        1 UNL1     -0.0198
     21 C         3.113547   1.550449   -5.763447 C.ar        1 UNL1     0.1169
     22 C         2.925553   0.969333   -4.516129 C.ar        1 UNL1     -0.0198
     23 C         2.259568   -0.258364   -4.419803 C.ar        1 UNL1     -0.0516
     24 O         3.774331   2.736024   -5.898272 O.3        1 UNL1     -0.5068
     25 O         4.238136   -3.974508   -5.753879 O.2        1 UNL1     -0.2917
     26 O         5.072864   -4.488465   -3.242385 O.3        1 UNL1     -0.5058
     27 O         0.871943   -1.643592   -1.757343 O.3        1 UNL1     -0.3648
     28 O         -1.870552   -0.739232   0.406689 O.3        1 UNL1     -0.3841
     29 O         1.431625   -1.029081   1.771408 O.3        1 UNL1     -0.3863
     30 O         -1.43715   -3.313325   2.000471 O.3        1 UNL1     -0.3829
     31 H         -1.114405   -1.780177   -1.640061 H        1 UNL1     0.0937
     32 H         0.0   0.0   0.0 H        1 UNL1     0.0671
     33 H         -0.497508   -1.017835   2.373121 H        1 UNL1     0.0649
     34 H         0.527411   -3.337989   2.593623 H        1 UNL1     0.0683
     35 H         0.082861   -4.801895   0.676958 H        1 UNL1     0.1085
     36 H         4.253062   -4.515359   -0.826912 H        1 UNL1     0.0691
     37 H         0.334215   -2.915425   -1.671335 H        1 UNL1     0.0691
     38 H         1.385434   -4.342634   -6.213431 H        1 UNL1     0.0385
     39 H         2.308694   -3.148205   -7.145886 H        1 UNL1     0.0385
     40 H         0.215601   -2.205261   -6.097475 H        1 UNL1     0.0789
     41 H         1.618314   -0.759455   -7.726229 H        1 UNL1     0.0623
     42 H         2.770598   1.411213   -7.876642 H        1 UNL1     0.0654
     43 H         3.286735   1.445937   -3.612632 H        1 UNL1     0.0654
     44 H         2.121002   -0.678452   -3.428253 H        1 UNL1     0.0623
     45 H         3.153432   3.395059   -6.248807 H        1 UNL1     0.2921
     46 H         5.019116   -5.365325   -3.654258 H        1 UNL1     0.2922
     47 H         1.652567   -2.092224   -1.403487 H        1 UNL1     0.2126
     48 H         -2.042121   -0.780188   1.36722 H        1 UNL1     0.2101
     49 H         1.52815   -0.122718   1.438267 H        1 UNL1     0.2100
     50 H         -1.608364   -4.220111   1.671628 H        1 UNL1     0.2102
@<TRIPOS>BOND
     1     1     2    1
     2     1     6    1
     3     2     3    1
     4     3     4    1
     5     3    29    1
     6     3    33    1
     7     4     5    1
     8     5     6    1
     9     5     7    1
    10     5    35    1
    11     7     8    1
    12     8     9   ar
    13     8    13   ar
    14     9    10   ar
    15     9    36    1
    16    10    11   ar
    17    10    26    1
    18    11    12   ar
    19    11    14    1
    20    12    13   ar
    21    12    17    1
    22    13    37    1
    23    14    15    1
    24    14    25    2
    25    15    16    1
    26    15    38    1
    27    15    39    1
    28    16    17    1
    29    16    18    1
    30    16    40    1
    31    18    19   ar
    32    18    23   ar
    33    19    20   ar
    34    19    41    1
    35    20    21   ar
    36    20    42    1
    37    21    22   ar
    38    21    24    1
    39    22    23   ar
    40    22    43    1
    41    23    44    1
    42    24    45    1
    43    26    46    1
    44    27    47    1
    45    28    48    1
    46    29    49    1
    47    30    50    1
    48     1    31    1
    49     1    27    1
    50     2    32    1
    51     2    28    1
    52     4    34    1
    53     4    30    1
