@<TRIPOS>MOLECULE
*****
 50 53 0 0 0
SMALL
GASTEIGER

@<TRIPOS>ATOM
     1 C         -0.322345   -1.358927   1.67935 C.3        1 UNL1     0.1889
     2 C         -0.463289   -0.977823   0.181073 C.3        1 UNL1     0.1342
     3 C         -1.908056   -0.952166   -0.340901 C.3        1 UNL1     0.1174
     4 C         -2.791891   -2.021505   0.305992 C.3        1 UNL1     0.1456
     5 C         -2.628829   -2.0756   1.835975 C.3        1 UNL1     0.2326
     6 O         -1.261865   -2.303184   2.171362 O.3        1 UNL1     -0.3076
     7 O         -3.196109   -0.939562   2.513419 O.3        1 UNL1     -0.4605
     8 C         -3.707256   -1.179818   3.776168 C.ar        1 UNL1     0.1310
     9 C         -4.530695   -2.255426   4.125905 C.ar        1 UNL1     0.0226
     10 C         -4.984593   -2.42211   5.439715 C.ar        1 UNL1     0.1343
     11 C         -4.606221   -1.529538   6.441709 C.ar        1 UNL1     0.1007
     12 C         -3.81781   -0.428688   6.096281 C.ar        1 UNL1     0.1389
     13 C         -3.363717   -0.259848   4.774644 C.ar        1 UNL1     0.0229
     14 C         -4.987855   -1.704528   7.862233 C.2        1 UNL1     0.1740
     15 C         -4.312664   -0.782155   8.83429 C.3        1 UNL1     0.0520
     16 C         -4.234287   0.603615   8.208625 C.3        1 UNL1     0.1322
     17 O         -3.47609   0.569115   6.979391 O.3        1 UNL1     -0.4828
     18 C         -5.588922   1.30763   8.098858 C.ar        1 UNL1     -0.0067
     19 C         -5.956722   1.915685   6.880989 C.ar        1 UNL1     -0.0516
     20 C         -7.167372   2.608394   6.760802 C.ar        1 UNL1     -0.0198
     21 C         -8.013617   2.706254   7.85081 C.ar        1 UNL1     0.1169
     22 C         -7.694555   2.089597   9.053629 C.ar        1 UNL1     -0.0198
     23 C         -6.492504   1.381155   9.168685 C.ar        1 UNL1     -0.0516
     24 O         -9.166418   3.420965   7.707145 O.3        1 UNL1     -0.5068
     25 O         -5.742463   -2.590223   8.255419 O.2        1 UNL1     -0.2917
     26 O         -5.785958   -3.491538   5.714893 O.3        1 UNL1     -0.5058
     27 O         -0.208006   -0.23673   2.539808 O.3        1 UNL1     -0.3648
     28 O         0.259146   -1.943576   -0.605129 O.3        1 UNL1     -0.3841
     29 O         -2.461766   0.361064   -0.236189 O.3        1 UNL1     -0.3863
     30 O         -2.451389   -3.313165   -0.242973 O.3        1 UNL1     -0.3829
     31 H         0.637959   -1.876073   1.781595 H        1 UNL1     0.0937
     32 H         0.0   0.0   0.0 H        1 UNL1     0.0671
     33 H         -1.879676   -1.171867   -1.417305 H        1 UNL1     0.0649
     34 H         -3.843483   -1.836074   0.060696 H        1 UNL1     0.0683
     35 H         -3.18337   -2.975736   2.129433 H        1 UNL1     0.1085
     36 H         -4.814281   -3.014394   3.405026 H        1 UNL1     0.0691
     37 H         -2.751966   0.60619   4.531269 H        1 UNL1     0.0691
     38 H         -3.312922   -1.18342   9.031852 H        1 UNL1     0.0385
     39 H         -4.872684   -0.780362   9.775647 H        1 UNL1     0.0385
     40 H         -3.635099   1.229969   8.883291 H        1 UNL1     0.0789
     41 H         -5.305618   1.860953   6.013395 H        1 UNL1     0.0623
     42 H         -7.434232   3.083129   5.819832 H        1 UNL1     0.0654
     43 H         -8.356968   2.147198   9.909083 H        1 UNL1     0.0654
     44 H         -6.280165   0.902866   10.119998 H        1 UNL1     0.0623
     45 H         -8.933292   4.342713   7.510293 H        1 UNL1     0.2921
     46 H         -5.386169   -4.021853   6.422245 H        1 UNL1     0.2922
     47 H         0.521248   0.331181   2.254283 H        1 UNL1     0.2126
     48 H         1.200492   -1.855489   -0.360503 H        1 UNL1     0.2101
     49 H         -2.032235   0.952206   -0.874819 H        1 UNL1     0.2100
     50 H         -2.697039   -3.311978   -1.191323 H        1 UNL1     0.2102
@<TRIPOS>BOND
     1     1     2    1
     2     1     6    1
     3     2     3    1
     4     3     4    1
     5     3    29    1
     6     3    33    1
     7     4     5    1
     8     5     6    1
     9     5     7    1
    10     5    35    1
    11     7     8    1
    12     8     9   ar
    13     8    13   ar
    14     9    10   ar
    15     9    36    1
    16    10    11   ar
    17    10    26    1
    18    11    12   ar
    19    11    14    1
    20    12    13   ar
    21    12    17    1
    22    13    37    1
    23    14    15    1
    24    14    25    2
    25    15    16    1
    26    15    38    1
    27    15    39    1
    28    16    17    1
    29    16    18    1
    30    16    40    1
    31    18    19   ar
    32    18    23   ar
    33    19    20   ar
    34    19    41    1
    35    20    21   ar
    36    20    42    1
    37    21    22   ar
    38    21    24    1
    39    22    23   ar
    40    22    43    1
    41    23    44    1
    42    24    45    1
    43    26    46    1
    44    27    47    1
    45    28    48    1
    46    29    49    1
    47    30    50    1
    48     1    31    1
    49     1    27    1
    50     2    32    1
    51     2    28    1
    52     4    34    1
    53     4    30    1
