@<TRIPOS>MOLECULE
*****
 50 53 0 0 0
SMALL
GASTEIGER

@<TRIPOS>ATOM
     1 C         0.082666   -0.394678   2.146672 C.3        1 UNL1     0.1889
     2 C         -0.699162   -0.089779   0.840639 C.3        1 UNL1     0.1342
     3 C         -1.577771   1.169261   0.898319 C.3        1 UNL1     0.1174
     4 C         -2.194637   1.399714   2.280161 C.3        1 UNL1     0.1456
     5 C         -1.169869   1.24019   3.418039 C.3        1 UNL1     0.2326
     6 O         -0.574802   -0.054104   3.35834 O.3        1 UNL1     -0.3076
     7 O         -0.203508   2.305312   3.472649 O.3        1 UNL1     -0.4605
     8 C         -0.432159   3.37528   2.626236 C.ar        1 UNL1     0.1310
     9 C         -1.487871   4.286377   2.73881 C.ar        1 UNL1     0.0226
     10 C         -1.624624   5.350392   1.839324 C.ar        1 UNL1     0.1343
     11 C         -0.694533   5.543141   0.818727 C.ar        1 UNL1     0.1007
     12 C         0.34079   4.61624   0.671265 C.ar        1 UNL1     0.1389
     13 C         0.476572   3.544947   1.574218 C.ar        1 UNL1     0.0229
     14 C         -0.74338   6.697815   -0.107824 C.2        1 UNL1     0.1740
     15 C         0.454436   6.869383   -0.995152 C.3        1 UNL1     0.0520
     16 C         0.897155   5.495036   -1.477985 C.3        1 UNL1     0.1322
     17 O         1.248672   4.648041   -0.361695 O.3        1 UNL1     -0.4828
     18 C         -0.065138   4.855034   -2.481536 C.ar        1 UNL1     -0.0067
     19 C         -1.313673   5.462254   -2.727824 C.ar        1 UNL1     -0.0516
     20 C         -2.236348   4.877867   -3.603681 C.ar        1 UNL1     -0.0198
     21 C         -1.926077   3.685247   -4.232344 C.ar        1 UNL1     0.1169
     22 C         -0.691336   3.080563   -4.035846 C.ar        1 UNL1     -0.0198
     23 C         0.238834   3.67431   -3.174275 C.ar        1 UNL1     -0.0516
     24 O         -2.864578   3.126336   -5.049189 O.3        1 UNL1     -0.5068
     25 O         -1.65428   7.521652   -0.114023 O.2        1 UNL1     -0.2917
     26 O         -2.677106   6.203   2.003408 O.3        1 UNL1     -0.5058
     27 O         1.421174   0.075216   2.127096 O.3        1 UNL1     -0.3648
     28 O         -1.5655   -1.20409   0.556958 O.3        1 UNL1     -0.3841
     29 O         -0.86376   2.308455   0.414007 O.3        1 UNL1     -0.3863
     30 O         -3.266096   0.453185   2.484481 O.3        1 UNL1     -0.3829
     31 H         0.180207   -1.484207   2.205761 H        1 UNL1     0.0937
     32 H         0.0   0.0   0.0 H        1 UNL1     0.0671
     33 H         -2.412258   1.028252   0.197271 H        1 UNL1     0.0649
     34 H         -2.637361   2.400676   2.32987 H        1 UNL1     0.0683
     35 H         -1.780035   1.268975   4.329493 H        1 UNL1     0.1085
     36 H         -2.21184   4.22362   3.543827 H        1 UNL1     0.0691
     37 H         1.290649   2.83646   1.437039 H        1 UNL1     0.0691
     38 H         1.239232   7.351528   -0.402565 H        1 UNL1     0.0385
     39 H         0.194138   7.53564   -1.824684 H        1 UNL1     0.0385
     40 H         1.83928   5.632374   -2.025762 H        1 UNL1     0.0789
     41 H         -1.584711   6.393856   -2.239659 H        1 UNL1     0.0623
     42 H         -3.200552   5.349641   -3.776166 H        1 UNL1     0.0654
     43 H         -0.432137   2.154349   -4.5347 H        1 UNL1     0.0654
     44 H         1.197793   3.179969   -3.052342 H        1 UNL1     0.0623
     45 H         -2.701903   2.170173   -5.093967 H        1 UNL1     0.2921
     46 H         -2.608841   6.92831   1.362566 H        1 UNL1     0.2922
     47 H         2.037874   -0.669993   2.141372 H        1 UNL1     0.2126
     48 H         -2.453132   -0.832773   0.389729 H        1 UNL1     0.2101
     49 H         -1.396776   3.109718   0.539167 H        1 UNL1     0.2100
     50 H         -2.888469   -0.341206   2.91582 H        1 UNL1     0.2102
@<TRIPOS>BOND
     1     1     2    1
     2     1     6    1
     3     2     3    1
     4     3     4    1
     5     3    29    1
     6     3    33    1
     7     4     5    1
     8     5     6    1
     9     5     7    1
    10     5    35    1
    11     7     8    1
    12     8     9   ar
    13     8    13   ar
    14     9    10   ar
    15     9    36    1
    16    10    11   ar
    17    10    26    1
    18    11    12   ar
    19    11    14    1
    20    12    13   ar
    21    12    17    1
    22    13    37    1
    23    14    15    1
    24    14    25    2
    25    15    16    1
    26    15    38    1
    27    15    39    1
    28    16    17    1
    29    16    18    1
    30    16    40    1
    31    18    19   ar
    32    18    23   ar
    33    19    20   ar
    34    19    41    1
    35    20    21   ar
    36    20    42    1
    37    21    22   ar
    38    21    24    1
    39    22    23   ar
    40    22    43    1
    41    23    44    1
    42    24    45    1
    43    26    46    1
    44    27    47    1
    45    28    48    1
    46    29    49    1
    47    30    50    1
    48     1    31    1
    49     1    27    1
    50     2    32    1
    51     2    28    1
    52     4    34    1
    53     4    30    1
