@<TRIPOS>MOLECULE
*****
 50 53 0 0 0
SMALL
GASTEIGER

@<TRIPOS>ATOM
     1 C         -0.305511   -1.318061   1.714696 C.3        1 UNL1     0.1889
     2 C         -0.467668   -0.969795   0.210583 C.3        1 UNL1     0.1342
     3 C         -1.920412   -0.94453   -0.28878 C.3        1 UNL1     0.1174
     4 C         -2.801753   -1.991973   0.396215 C.3        1 UNL1     0.1456
     5 C         -2.614509   -2.012782   1.924243 C.3        1 UNL1     0.2326
     6 O         -1.244079   -2.243518   2.242915 O.3        1 UNL1     -0.3076
     7 O         -3.162244   -0.857289   2.584654 O.3        1 UNL1     -0.4605
     8 C         -3.644058   -1.062399   3.865011 C.ar        1 UNL1     0.1310
     9 C         -4.462151   -2.125483   4.262347 C.ar        1 UNL1     0.0226
     10 C         -4.885307   -2.255907   5.59044 C.ar        1 UNL1     0.1343
     11 C         -4.480692   -1.338627   6.559318 C.ar        1 UNL1     0.1007
     12 C         -3.69744   -0.250071   6.166449 C.ar        1 UNL1     0.1389
     13 C         -3.274268   -0.117698   4.830472 C.ar        1 UNL1     0.0229
     14 C         -4.829102   -1.474802   7.992573 C.2        1 UNL1     0.1740
     15 C         -4.128373   -0.529579   8.923745 C.3        1 UNL1     0.0520
     16 C         -4.060749   0.838954   8.260041 C.3        1 UNL1     0.1322
     17 O         -3.331972   0.769406   7.014603 O.3        1 UNL1     -0.4828
     18 C         -5.415525   1.544666   8.163712 C.ar        1 UNL1     -0.0067
     19 C         -5.817981   2.106305   6.934565 C.ar        1 UNL1     -0.0516
     20 C         -7.029196   2.799615   6.823917 C.ar        1 UNL1     -0.0198
     21 C         -7.841533   2.944198   7.934336 C.ar        1 UNL1     0.1169
     22 C         -7.48828   2.37361   9.150264 C.ar        1 UNL1     -0.0198
     23 C         -6.285873   1.66442   9.256666 C.ar        1 UNL1     -0.0516
     24 O         -8.99556   3.658294   7.797625 O.3        1 UNL1     -0.5068
     25 O         -5.576796   -2.347143   8.426694 O.2        1 UNL1     -0.2917
     26 O         -5.683079   -3.314855   5.91258 O.3        1 UNL1     -0.5058
     27 O         -0.168893   -0.177653   2.547518 O.3        1 UNL1     -0.3648
     28 O         0.23473   -1.958734   -0.56488 O.3        1 UNL1     -0.3841
     29 O         -2.462458   0.375061   -0.205122 O.3        1 UNL1     -0.3863
     30 O         -2.479867   -3.298351   -0.128623 O.3        1 UNL1     -0.3829
     31 H         0.652391   -1.840331   1.813365 H        1 UNL1     0.0937
     32 H         0.0   0.0   0.0 H        1 UNL1     0.0671
     33 H         -1.911009   -1.188705   -1.360232 H        1 UNL1     0.0649
     34 H         -3.85573   -1.803834   0.163537 H        1 UNL1     0.0683
     35 H         -3.171022   -2.901654   2.246855 H        1 UNL1     0.1085
     36 H         -4.764958   -2.902146   3.568644 H        1 UNL1     0.0691
     37 H         -2.665902   0.739446   4.549957 H        1 UNL1     0.0691
     38 H         -3.125422   -0.92907   9.108193 H        1 UNL1     0.0385
     39 H         -4.665943   -0.50101   9.877674 H        1 UNL1     0.0385
     40 H         -3.443915   1.480708   8.903616 H        1 UNL1     0.0789
     41 H         -5.193772   2.014473   6.050495 H        1 UNL1     0.0623
     42 H         -7.322824   3.2384   5.873516 H        1 UNL1     0.0654
     43 H         -8.124152   2.467887   10.02244 H        1 UNL1     0.0654
     44 H         -6.046439   1.222753   10.219187 H        1 UNL1     0.0623
     45 H         -8.76667   4.562114   7.526634 H        1 UNL1     0.2921
     46 H         -5.266941   -3.829318   6.622206 H        1 UNL1     0.2922
     47 H         0.573086   0.367195   2.250086 H        1 UNL1     0.2126
     48 H         1.174501   -1.901899   -0.305395 H        1 UNL1     0.2101
     49 H         -2.03275   0.950341   -0.85796 H        1 UNL1     0.2100
     50 H         -2.756268   -3.322307   -1.068167 H        1 UNL1     0.2102
@<TRIPOS>BOND
     1     1     2    1
     2     1     6    1
     3     2     3    1
     4     3     4    1
     5     3    29    1
     6     3    33    1
     7     4     5    1
     8     5     6    1
     9     5     7    1
    10     5    35    1
    11     7     8    1
    12     8     9   ar
    13     8    13   ar
    14     9    10   ar
    15     9    36    1
    16    10    11   ar
    17    10    26    1
    18    11    12   ar
    19    11    14    1
    20    12    13   ar
    21    12    17    1
    22    13    37    1
    23    14    15    1
    24    14    25    2
    25    15    16    1
    26    15    38    1
    27    15    39    1
    28    16    17    1
    29    16    18    1
    30    16    40    1
    31    18    19   ar
    32    18    23   ar
    33    19    20   ar
    34    19    41    1
    35    20    21   ar
    36    20    42    1
    37    21    22   ar
    38    21    24    1
    39    22    23   ar
    40    22    43    1
    41    23    44    1
    42    24    45    1
    43    26    46    1
    44    27    47    1
    45    28    48    1
    46    29    49    1
    47    30    50    1
    48     1    31    1
    49     1    27    1
    50     2    32    1
    51     2    28    1
    52     4    34    1
    53     4    30    1
