@<TRIPOS>MOLECULE
*****
 50 53 0 0 0
SMALL
GASTEIGER

@<TRIPOS>ATOM
     1 C         -0.350111   -1.338206   1.690394 C.3        1 UNL1     0.1889
     2 C         -0.471727   -0.972749   0.186535 C.3        1 UNL1     0.1342
     3 C         -1.910348   -0.943508   -0.351963 C.3        1 UNL1     0.1174
     4 C         -2.808412   -1.999906   0.29659 C.3        1 UNL1     0.1456
     5 C         -2.66288   -2.038175   1.828817 C.3        1 UNL1     0.2326
     6 O         -1.301294   -2.270882   2.182086 O.3        1 UNL1     -0.3076
     7 O         -3.230223   -0.891087   2.487327 O.3        1 UNL1     -0.4605
     8 C         -3.753679   -1.113302   3.748335 C.ar        1 UNL1     0.1310
     9 C         -4.585699   -2.180379   4.103847 C.ar        1 UNL1     0.0226
     10 C         -5.051978   -2.328693   5.415522 C.ar        1 UNL1     0.1343
     11 C         -4.677825   -1.425861   6.409878 C.ar        1 UNL1     0.1007
     12 C         -3.880739   -0.333314   6.058058 C.ar        1 UNL1     0.1389
     13 C         -3.414185   -0.182941   4.738533 C.ar        1 UNL1     0.0229
     14 C         -5.072824   -1.58154   7.828995 C.2        1 UNL1     0.1740
     15 C         -4.401451   -0.650775   8.795682 C.3        1 UNL1     0.0520
     16 C         -4.310429   0.726828   8.153902 C.3        1 UNL1     0.1322
     17 O         -3.541648   0.673473   6.931937 O.3        1 UNL1     -0.4828
     18 C         -5.660398   1.436284   8.023583 C.ar        1 UNL1     -0.0067
     19 C         -6.014339   2.031255   6.795191 C.ar        1 UNL1     -0.0516
     20 C         -7.220295   2.72855   6.655866 C.ar        1 UNL1     -0.0198
     21 C         -8.07557   2.844003   7.73707 C.ar        1 UNL1     0.1169
     22 C         -7.770276   2.240494   8.950087 C.ar        1 UNL1     -0.0198
     23 C         -6.572954   1.527448   9.084397 C.ar        1 UNL1     -0.0516
     24 O         -9.22336   3.56272   7.574513 O.3        1 UNL1     -0.5068
     25 O         -5.835419   -2.458538   8.226247 O.2        1 UNL1     -0.2917
     26 O         -5.861237   -3.390614   5.696603 O.3        1 UNL1     -0.5058
     27 O         -0.238035   -0.20735   2.53974 O.3        1 UNL1     -0.3648
     28 O         0.2531   -1.951769   -0.580832 O.3        1 UNL1     -0.3841
     29 O         -2.456529   0.374352   -0.267904 O.3        1 UNL1     -0.3863
     30 O         -2.470296   -3.299719   -0.23431 O.3        1 UNL1     -0.3829
     31 H         0.605556   -1.860394   1.809133 H        1 UNL1     0.0937
     32 H         0.0   0.0   0.0 H        1 UNL1     0.0671
     33 H         -1.871345   -1.175247   -1.425506 H        1 UNL1     0.0649
     34 H         -3.855941   -1.810395   0.037423 H        1 UNL1     0.0683
     35 H         -3.226599   -2.931413   2.125842 H        1 UNL1     0.1085
     36 H         -4.866851   -2.946662   3.389785 H        1 UNL1     0.0691
     37 H         -2.795858   0.676956   4.49005 H        1 UNL1     0.0691
     38 H         -3.405568   -1.054641   9.006957 H        1 UNL1     0.0385
     39 H         -4.969704   -0.634644   9.731954 H        1 UNL1     0.0385
     40 H         -3.713969   1.358349   8.826164 H        1 UNL1     0.0789
     41 H         -5.355927   1.96263   5.934125 H        1 UNL1     0.0623
     42 H         -7.476423   3.193088   5.706858 H        1 UNL1     0.0654
     43 H         -8.439874   2.311896   9.798881 H        1 UNL1     0.0654
     44 H         -6.371453   1.059759   10.043308 H        1 UNL1     0.0623
     45 H         -8.983889   4.47562   7.346512 H        1 UNL1     0.2921
     46 H         -5.470421   -3.914255   6.413873 H        1 UNL1     0.2922
     47 H         0.504937   0.346945   2.262953 H        1 UNL1     0.2126
     48 H         1.192203   -1.867079   -0.326577 H        1 UNL1     0.2101
     49 H         -2.015974   0.955623   -0.908083 H        1 UNL1     0.2100
     50 H         -2.705281   -3.307403   -1.185328 H        1 UNL1     0.2102
@<TRIPOS>BOND
     1     1     2    1
     2     1     6    1
     3     2     3    1
     4     3     4    1
     5     3    29    1
     6     3    33    1
     7     4     5    1
     8     5     6    1
     9     5     7    1
    10     5    35    1
    11     7     8    1
    12     8     9   ar
    13     8    13   ar
    14     9    10   ar
    15     9    36    1
    16    10    11   ar
    17    10    26    1
    18    11    12   ar
    19    11    14    1
    20    12    13   ar
    21    12    17    1
    22    13    37    1
    23    14    15    1
    24    14    25    2
    25    15    16    1
    26    15    38    1
    27    15    39    1
    28    16    17    1
    29    16    18    1
    30    16    40    1
    31    18    19   ar
    32    18    23   ar
    33    19    20   ar
    34    19    41    1
    35    20    21   ar
    36    20    42    1
    37    21    22   ar
    38    21    24    1
    39    22    23   ar
    40    22    43    1
    41    23    44    1
    42    24    45    1
    43    26    46    1
    44    27    47    1
    45    28    48    1
    46    29    49    1
    47    30    50    1
    48     1    31    1
    49     1    27    1
    50     2    32    1
    51     2    28    1
    52     4    34    1
    53     4    30    1
