@<TRIPOS>MOLECULE
*****
 50 53 0 0 0
SMALL
GASTEIGER

@<TRIPOS>ATOM
     1 C         -0.32872   -1.341649   1.691959 C.3        1 UNL1     0.1889
     2 C         -0.463257   -0.976303   0.189174 C.3        1 UNL1     0.1342
     3 C         -1.905685   -0.957397   -0.339512 C.3        1 UNL1     0.1174
     4 C         -2.791497   -2.020739   0.31452 C.3        1 UNL1     0.1456
     5 C         -2.635266   -2.058743   1.8457 C.3        1 UNL1     0.2326
     6 O         -1.269628   -2.281581   2.189567 O.3        1 UNL1     -0.3076
     7 O         -3.206563   -0.916224   2.508716 O.3        1 UNL1     -0.4605
     8 C         -3.71297   -1.141321   3.776159 C.ar        1 UNL1     0.1310
     9 C         -4.529848   -2.216129   4.143308 C.ar        1 UNL1     0.0226
     10 C         -4.979247   -2.36665   5.460611 C.ar        1 UNL1     0.1343
     11 C         -4.602749   -1.458134   6.448887 C.ar        1 UNL1     0.1007
     12 C         -3.821016   -0.358207   6.085791 C.ar        1 UNL1     0.1389
     13 C         -3.371455   -0.205639   4.760631 C.ar        1 UNL1     0.0229
     14 C         -4.979547   -1.615086   7.872805 C.2        1 UNL1     0.1740
     15 C         -4.306472   -0.675665   8.829887 C.3        1 UNL1     0.0520
     16 C         -4.237014   0.701552   8.18459 C.3        1 UNL1     0.1322
     17 O         -3.482044   0.653668   6.953819 O.3        1 UNL1     -0.4828
     18 C         -5.595583   1.396967   8.068777 C.ar        1 UNL1     -0.0067
     19 C         -5.976194   1.97291   6.83929 C.ar        1 UNL1     -0.0516
     20 C         -7.190821   2.657361   6.712124 C.ar        1 UNL1     -0.0198
     21 C         -8.028353   2.778868   7.806475 C.ar        1 UNL1     0.1169
     22 C         -7.696565   2.193749   9.021544 C.ar        1 UNL1     -0.0198
     23 C         -6.49051   1.493405   9.144044 C.ar        1 UNL1     -0.0516
     24 O         -9.185425   3.48497   7.654803 O.3        1 UNL1     -0.5068
     25 O         -5.728461   -2.499037   8.280534 O.2        1 UNL1     -0.2917
     26 O         -5.774289   -3.436214   5.75306 O.3        1 UNL1     -0.5058
     27 O         -0.219214   -0.210445   2.541179 O.3        1 UNL1     -0.3648
     28 O         0.263535   -1.949539   -0.583671 O.3        1 UNL1     -0.3841
     29 O         -2.46099   0.35635   -0.250978 O.3        1 UNL1     -0.3863
     30 O         -2.447421   -3.317739   -0.21942 O.3        1 UNL1     -0.3829
     31 H         0.63156   -1.856831   1.803895 H        1 UNL1     0.0937
     32 H         0.0   0.0   0.0 H        1 UNL1     0.0671
     33 H         -1.872279   -1.188274   -1.41343 H        1 UNL1     0.0649
     34 H         -3.842136   -1.838828   0.062591 H        1 UNL1     0.0683
     35 H         -3.190346   -2.956276   2.146033 H        1 UNL1     0.1085
     36 H         -4.811479   -2.986614   3.433972 H        1 UNL1     0.0691
     37 H         -2.76488   0.660029   4.503377 H        1 UNL1     0.0691
     38 H         -3.30412   -1.068957   9.030236 H        1 UNL1     0.0385
     39 H         -4.863894   -0.663513   9.772708 H        1 UNL1     0.0385
     40 H         -3.639225   1.340413   8.848687 H        1 UNL1     0.0789
     41 H         -5.332126   1.899254   5.967853 H        1 UNL1     0.0623
     42 H         -7.467602   3.107355   5.761909 H        1 UNL1     0.0654
     43 H         -8.352055   2.269921   9.88087 H        1 UNL1     0.0654
     44 H         -6.268145   1.03989   10.10515 H        1 UNL1     0.0623
     45 H         -8.958441   4.397015   7.411146 H        1 UNL1     0.2921
     46 H         -5.369803   -3.95446   6.466659 H        1 UNL1     0.2922
     47 H         0.521167   0.346619   2.263017 H        1 UNL1     0.2126
     48 H         1.20012   -1.875549   -0.317089 H        1 UNL1     0.2101
     49 H         -2.029101   0.941196   -0.893801 H        1 UNL1     0.2100
     50 H         -2.688807   -3.326655   -1.168823 H        1 UNL1     0.2102
@<TRIPOS>BOND
     1     1     2    1
     2     1     6    1
     3     2     3    1
     4     3     4    1
     5     3    29    1
     6     3    33    1
     7     4     5    1
     8     5     6    1
     9     5     7    1
    10     5    35    1
    11     7     8    1
    12     8     9   ar
    13     8    13   ar
    14     9    10   ar
    15     9    36    1
    16    10    11   ar
    17    10    26    1
    18    11    12   ar
    19    11    14    1
    20    12    13   ar
    21    12    17    1
    22    13    37    1
    23    14    15    1
    24    14    25    2
    25    15    16    1
    26    15    38    1
    27    15    39    1
    28    16    17    1
    29    16    18    1
    30    16    40    1
    31    18    19   ar
    32    18    23   ar
    33    19    20   ar
    34    19    41    1
    35    20    21   ar
    36    20    42    1
    37    21    22   ar
    38    21    24    1
    39    22    23   ar
    40    22    43    1
    41    23    44    1
    42    24    45    1
    43    26    46    1
    44    27    47    1
    45    28    48    1
    46    29    49    1
    47    30    50    1
    48     1    31    1
    49     1    27    1
    50     2    32    1
    51     2    28    1
    52     4    34    1
    53     4    30    1
