@<TRIPOS>MOLECULE
*****
 50 53 0 0 0
SMALL
GASTEIGER

@<TRIPOS>ATOM
     1 C         -0.345484   -1.335877   1.693186 C.3        1 UNL1     0.1889
     2 C         -0.468948   -0.973676   0.18869 C.3        1 UNL1     0.1342
     3 C         -1.907947   -0.94943   -0.349047 C.3        1 UNL1     0.1174
     4 C         -2.802741   -2.007028   0.302065 C.3        1 UNL1     0.1456
     5 C         -2.656244   -2.041922   1.83428 C.3        1 UNL1     0.2326
     6 O         -1.293825   -2.270204   2.187227 O.3        1 UNL1     -0.3076
     7 O         -3.226364   -0.89512   2.490884 O.3        1 UNL1     -0.4605
     8 C         -3.748499   -1.116321   3.752618 C.ar        1 UNL1     0.1310
     9 C         -4.577385   -2.184986   4.110673 C.ar        1 UNL1     0.0226
     10 C         -5.042518   -2.332032   5.422897 C.ar        1 UNL1     0.1343
     11 C         -4.670287   -1.426246   6.415287 C.ar        1 UNL1     0.1007
     12 C         -3.876402   -0.3322   6.060894 C.ar        1 UNL1     0.1389
     13 C         -3.411005   -0.18311   4.740816 C.ar        1 UNL1     0.0229
     14 C         -5.064059   -1.580253   7.834927 C.2        1 UNL1     0.1740
     15 C         -4.394701   -0.645773   8.799425 C.3        1 UNL1     0.0520
     16 C         -4.307824   0.730826   8.154921 C.3        1 UNL1     0.1322
     17 O         -3.539587   0.677209   6.932626 O.3        1 UNL1     -0.4828
     18 C         -5.659809   1.436319   8.023992 C.ar        1 UNL1     -0.0067
     19 C         -6.016073   2.027929   6.794649 C.ar        1 UNL1     -0.0516
     20 C         -7.224018   2.721639   6.654655 C.ar        1 UNL1     -0.0198
     21 C         -8.078999   2.836844   7.736118 C.ar        1 UNL1     0.1169
     22 C         -7.771367   2.236532   8.950131 C.ar        1 UNL1     -0.0198
     23 C         -6.572015   1.527037   9.085145 C.ar        1 UNL1     -0.0516
     24 O         -9.22885   3.552089   7.572819 O.3        1 UNL1     -0.5068
     25 O         -5.824019   -2.458568   8.234313 O.2        1 UNL1     -0.2917
     26 O         -5.848699   -3.395623   5.706498 O.3        1 UNL1     -0.5058
     27 O         -0.236037   -0.20307   2.540272 O.3        1 UNL1     -0.3648
     28 O         0.258133   -1.952191   -0.577188 O.3        1 UNL1     -0.3841
     29 O         -2.457698   0.367085   -0.267236 O.3        1 UNL1     -0.3863
     30 O         -2.461356   -3.306937   -0.226504 O.3        1 UNL1     -0.3829
     31 H         0.61168   -1.855208   1.812396 H        1 UNL1     0.0937
     32 H         0.0   0.0   0.0 H        1 UNL1     0.0671
     33 H         -1.868912   -1.183146   -1.422161 H        1 UNL1     0.0649
     34 H         -3.850933   -1.820898   0.043124 H        1 UNL1     0.0683
     35 H         -3.217341   -2.936126   2.133358 H        1 UNL1     0.1085
     36 H         -4.856834   -2.953423   3.398258 H        1 UNL1     0.0691
     37 H         -2.795182   0.677996   4.490314 H        1 UNL1     0.0691
     38 H         -3.397594   -1.046492   9.010918 H        1 UNL1     0.0385
     39 H         -4.96247   -0.629383   9.735986 H        1 UNL1     0.0385
     40 H         -3.712723   1.365287   8.825618 H        1 UNL1     0.0789
     41 H         -5.35796   1.95944   5.933344 H        1 UNL1     0.0623
     42 H         -7.481954   3.183628   5.704894 H        1 UNL1     0.0654
     43 H         -8.440681   2.307743   9.799164 H        1 UNL1     0.0654
     44 H         -6.368692   1.061766   10.044847 H        1 UNL1     0.0623
     45 H         -8.992015   4.465198   7.342911 H        1 UNL1     0.2921
     46 H         -5.456044   -3.916795   6.42456 H        1 UNL1     0.2922
     47 H         0.50864   0.349871   2.265366 H        1 UNL1     0.2126
     48 H         1.193818   -1.879914   -0.307001 H        1 UNL1     0.2101
     49 H         -2.019101   0.948319   -0.908792 H        1 UNL1     0.2100
     50 H         -2.696853   -3.317114   -1.177372 H        1 UNL1     0.2102
@<TRIPOS>BOND
     1     1     2    1
     2     1     6    1
     3     2     3    1
     4     3     4    1
     5     3    29    1
     6     3    33    1
     7     4     5    1
     8     5     6    1
     9     5     7    1
    10     5    35    1
    11     7     8    1
    12     8     9   ar
    13     8    13   ar
    14     9    10   ar
    15     9    36    1
    16    10    11   ar
    17    10    26    1
    18    11    12   ar
    19    11    14    1
    20    12    13   ar
    21    12    17    1
    22    13    37    1
    23    14    15    1
    24    14    25    2
    25    15    16    1
    26    15    38    1
    27    15    39    1
    28    16    17    1
    29    16    18    1
    30    16    40    1
    31    18    19   ar
    32    18    23   ar
    33    19    20   ar
    34    19    41    1
    35    20    21   ar
    36    20    42    1
    37    21    22   ar
    38    21    24    1
    39    22    23   ar
    40    22    43    1
    41    23    44    1
    42    24    45    1
    43    26    46    1
    44    27    47    1
    45    28    48    1
    46    29    49    1
    47    30    50    1
    48     1    31    1
    49     1    27    1
    50     2    32    1
    51     2    28    1
    52     4    34    1
    53     4    30    1
