@<TRIPOS>MOLECULE
*****
 50 53 0 0 0
SMALL
GASTEIGER

@<TRIPOS>ATOM
     1 C         -1.471794   1.392728   0.815435 C.3        1 UNL1     0.1889
     2 C         -0.024381   1.024314   0.392108 C.3        1 UNL1     0.1342
     3 C         1.023828   1.159077   1.507259 C.3        1 UNL1     0.1174
     4 C         0.73299   2.323261   2.457631 C.3        1 UNL1     0.1456
     5 C         -0.738844   2.36437   2.907495 C.3        1 UNL1     0.2326
     6 O         -1.593345   2.4383   1.768535 O.3        1 UNL1     -0.3076
     7 O         -1.091774   1.30171   3.81166 O.3        1 UNL1     -0.4605
     8 C         -0.584102   0.051818   3.505773 C.ar        1 UNL1     0.1310
     9 C         -1.021621   -0.766491   2.458754 C.ar        1 UNL1     0.0226
     10 C         -0.430505   -2.012609   2.218599 C.ar        1 UNL1     0.1343
     11 C         0.629459   -2.460701   3.005702 C.ar        1 UNL1     0.1007
     12 C         1.047898   -1.670559   4.079651 C.ar        1 UNL1     0.1389
     13 C         0.451614   -0.41881   4.322549 C.ar        1 UNL1     0.0229
     14 C         1.345747   -3.730696   2.744556 C.2        1 UNL1     0.1740
     15 C         2.595997   -3.947514   3.545441 C.3        1 UNL1     0.0520
     16 C         2.346211   -3.466642   4.968229 C.3        1 UNL1     0.1322
     17 O         2.008652   -2.06204   4.982957 O.3        1 UNL1     -0.4828
     18 C         1.386678   -4.358001   5.760378 C.ar        1 UNL1     -0.0067
     19 C         1.67487   -4.660625   7.107069 C.ar        1 UNL1     -0.0516
     20 C         0.843575   -5.510846   7.846012 C.ar        1 UNL1     -0.0198
     21 C         -0.272354   -6.069378   7.248876 C.ar        1 UNL1     0.1169
     22 C         -0.600824   -5.763798   5.934506 C.ar        1 UNL1     -0.0198
     23 C         0.220167   -4.898988   5.200931 C.ar        1 UNL1     -0.0516
     24 O         -1.037525   -6.922662   7.988347 O.3        1 UNL1     -0.5068
     25 O         1.00588   -4.532973   1.878919 O.2        1 UNL1     -0.2917
     26 O         -0.90448   -2.762776   1.182172 O.3        1 UNL1     -0.5058
     27 O         -2.261225   0.267981   1.168324 O.3        1 UNL1     -0.3648
     28 O         0.374478   1.899947   -0.678819 O.3        1 UNL1     -0.3841
     29 O         1.198978   -0.083296   2.191337 O.3        1 UNL1     -0.3863
     30 O         1.050615   3.566492   1.794923 O.3        1 UNL1     -0.3829
     31 H         -1.964205   1.799177   -0.074739 H        1 UNL1     0.0937
     32 H         0.0   0.0   0.0 H        1 UNL1     0.0671
     33 H         1.99254   1.370219   1.033195 H        1 UNL1     0.0649
     34 H         1.379095   2.256148   3.339926 H        1 UNL1     0.0683
     35 H         -0.827436   3.322148   3.435406 H        1 UNL1     0.1085
     36 H         -1.803679   -0.450849   1.776936 H        1 UNL1     0.0691
     37 H         0.79484   0.176772   5.16574 H        1 UNL1     0.0691
     38 H         3.397956   -3.373179   3.069491 H        1 UNL1     0.0385
     39 H         2.866556   -5.00827   3.508392 H        1 UNL1     0.0385
     40 H         3.304297   -3.52437   5.502326 H        1 UNL1     0.0789
     41 H         2.549828   -4.242157   7.595928 H        1 UNL1     0.0623
     42 H         1.083021   -5.745986   8.880124 H        1 UNL1     0.0654
     43 H         -1.480609   -6.183743   5.46171 H        1 UNL1     0.0654
     44 H         -0.072401   -4.67384   4.179874 H        1 UNL1     0.0623
     45 H         -0.561414   -7.764354   8.075465 H        1 UNL1     0.2921
     46 H         -0.949097   -2.216682   0.38142 H        1 UNL1     0.2922
     47 H         -2.098807   -0.461187   0.553674 H        1 UNL1     0.2126
     48 H         1.236432   2.280768   -0.422413 H        1 UNL1     0.2101
     49 H         1.284302   -0.805001   1.548176 H        1 UNL1     0.2100
     50 H         1.921403   3.461638   1.358521 H        1 UNL1     0.2102
@<TRIPOS>BOND
     1     1     2    1
     2     1     6    1
     3     2     3    1
     4     3     4    1
     5     3    29    1
     6     3    33    1
     7     4     5    1
     8     5     6    1
     9     5     7    1
    10     5    35    1
    11     7     8    1
    12     8     9   ar
    13     8    13   ar
    14     9    10   ar
    15     9    36    1
    16    10    11   ar
    17    10    26    1
    18    11    12   ar
    19    11    14    1
    20    12    13   ar
    21    12    17    1
    22    13    37    1
    23    14    15    1
    24    14    25    2
    25    15    16    1
    26    15    38    1
    27    15    39    1
    28    16    17    1
    29    16    18    1
    30    16    40    1
    31    18    19   ar
    32    18    23   ar
    33    19    20   ar
    34    19    41    1
    35    20    21   ar
    36    20    42    1
    37    21    22   ar
    38    21    24    1
    39    22    23   ar
    40    22    43    1
    41    23    44    1
    42    24    45    1
    43    26    46    1
    44    27    47    1
    45    28    48    1
    46    29    49    1
    47    30    50    1
    48     1    31    1
    49     1    27    1
    50     2    32    1
    51     2    28    1
    52     4    34    1
    53     4    30    1
