@<TRIPOS>MOLECULE
*****
 50 53 0 0 0
SMALL
GASTEIGER

@<TRIPOS>ATOM
     1 C         -0.519558   -1.197111   1.751511 C.3        1 UNL1     0.1889
     2 C         -0.511782   -0.945182   0.21971 C.3        1 UNL1     0.1342
     3 C         -1.901988   -0.926034   -0.434067 C.3        1 UNL1     0.1174
     4 C         -2.877436   -1.910028   0.216606 C.3        1 UNL1     0.1456
     5 C         -2.85455   -1.834152   1.754163 C.3        1 UNL1     0.2326
     6 O         -1.532114   -2.068618   2.232761 O.3        1 UNL1     -0.3076
     7 O         -3.440127   -0.628039   2.277336 O.3        1 UNL1     -0.4605
     8 C         -4.067548   -0.741769   3.50491 C.ar        1 UNL1     0.1310
     9 C         -4.954325   -1.760249   3.870456 C.ar        1 UNL1     0.0226
     10 C         -5.526724   -1.797678   5.147508 C.ar        1 UNL1     0.1343
     11 C         -5.207424   -0.829768   6.098843 C.ar        1 UNL1     0.1007
     12 C         -4.355043   0.215141   5.732243 C.ar        1 UNL1     0.1389
     13 C         -3.781692   0.254016   4.447257 C.ar        1 UNL1     0.0229
     14 C         -5.717487   -0.867866   7.489001 C.2        1 UNL1     0.1740
     15 C         -5.099049   0.11933   8.434795 C.3        1 UNL1     0.0520
     16 C         -4.919437   1.441522   7.701646 C.3        1 UNL1     0.1322
     17 O         -4.058279   1.278223   6.553251 O.3        1 UNL1     -0.4828
     18 C         -6.234694   2.168025   7.410072 C.ar        1 UNL1     -0.0067
     19 C         -6.480208   2.661745   6.112313 C.ar        1 UNL1     -0.0516
     20 C         -7.651603   3.372015   5.823673 C.ar        1 UNL1     -0.0198
     21 C         -8.579771   3.60103   6.823615 C.ar        1 UNL1     0.1169
     22 C         -8.381883   3.098595   8.103161 C.ar        1 UNL1     -0.0198
     23 C         -7.219194   2.372401   8.387509 C.ar        1 UNL1     -0.0516
     24 O         -9.690851   4.329262   6.51445 O.3        1 UNL1     -0.5068
     25 O         -6.53311   -1.695181   7.887489 O.2        1 UNL1     -0.2917
     26 O         -6.384796   -2.817204   5.440533 O.3        1 UNL1     -0.5058
     27 O         -0.443632   -0.007308   2.52053 O.3        1 UNL1     -0.3648
     28 O         0.243988   -1.995498   -0.411442 O.3        1 UNL1     -0.3841
     29 O         -2.416351   0.405921   -0.49287 O.3        1 UNL1     -0.3863
     30 O         -2.5346   -3.253657   -0.186897 O.3        1 UNL1     -0.3829
     31 H         0.408891   -1.729278   1.985732 H        1 UNL1     0.0937
     32 H         0.0   0.0   0.0 H        1 UNL1     0.0671
     33 H         -1.78472   -1.239986   -1.480682 H        1 UNL1     0.0649
     34 H         -3.895553   -1.718233   -0.13984 H        1 UNL1     0.0683
     35 H         -3.464527   -2.689632   2.070329 H        1 UNL1     0.1085
     36 H         -5.199314   -2.572622   3.195066 H        1 UNL1     0.0691
     37 H         -3.12206   1.078787   4.186239 H        1 UNL1     0.0691
     38 H         -4.134557   -0.288685   8.755428 H        1 UNL1     0.0385
     39 H         -5.738841   0.219328   9.318222 H        1 UNL1     0.0385
     40 H         -4.360681   2.109528   8.371034 H        1 UNL1     0.0789
     41 H         -5.762984   2.503112   5.312266 H        1 UNL1     0.0623
     42 H         -7.823874   3.757909   4.821964 H        1 UNL1     0.0654
     43 H         -9.10928   3.259183   8.889936 H        1 UNL1     0.0654
     44 H         -7.102198   1.985498   9.395211 H        1 UNL1     0.0623
     45 H         -9.409782   5.220102   6.249647 H        1 UNL1     0.2921
     46 H         -6.06655   -3.292805   6.224072 H        1 UNL1     0.2922
     47 H         0.33397   0.507963   2.264227 H        1 UNL1     0.2126
     48 H         1.156945   -1.926101   -0.071697 H        1 UNL1     0.2101
     49 H         -1.910641   0.926847   -1.136833 H        1 UNL1     0.2100
     50 H         -2.693825   -3.328953   -1.150583 H        1 UNL1     0.2102
@<TRIPOS>BOND
     1     1     2    1
     2     1     6    1
     3     2     3    1
     4     3     4    1
     5     3    29    1
     6     3    33    1
     7     4     5    1
     8     5     6    1
     9     5     7    1
    10     5    35    1
    11     7     8    1
    12     8     9   ar
    13     8    13   ar
    14     9    10   ar
    15     9    36    1
    16    10    11   ar
    17    10    26    1
    18    11    12   ar
    19    11    14    1
    20    12    13   ar
    21    12    17    1
    22    13    37    1
    23    14    15    1
    24    14    25    2
    25    15    16    1
    26    15    38    1
    27    15    39    1
    28    16    17    1
    29    16    18    1
    30    16    40    1
    31    18    19   ar
    32    18    23   ar
    33    19    20   ar
    34    19    41    1
    35    20    21   ar
    36    20    42    1
    37    21    22   ar
    38    21    24    1
    39    22    23   ar
    40    22    43    1
    41    23    44    1
    42    24    45    1
    43    26    46    1
    44    27    47    1
    45    28    48    1
    46    29    49    1
    47    30    50    1
    48     1    31    1
    49     1    27    1
    50     2    32    1
    51     2    28    1
    52     4    34    1
    53     4    30    1
