@<TRIPOS>MOLECULE
*****
 50 53 0 0 0
SMALL
GASTEIGER

@<TRIPOS>ATOM
     1 C         -0.336204   -1.331643   1.698381 C.3        1 UNL1     0.1889
     2 C         -0.464717   -0.974856   0.193015 C.3        1 UNL1     0.1342
     3 C         -1.905099   -0.957932   -0.341289 C.3        1 UNL1     0.1174
     4 C         -2.794211   -2.016838   0.315457 C.3        1 UNL1     0.1456
     5 C         -2.643864   -2.046142   1.847416 C.3        1 UNL1     0.2326
     6 O         -1.27972   -2.268001   2.197785 O.3        1 UNL1     -0.3076
     7 O         -3.216825   -0.899404   2.501656 O.3        1 UNL1     -0.4605
     8 C         -3.728244   -1.116827   3.768425 C.ar        1 UNL1     0.1310
     9 C         -4.635355   -2.124249   4.114186 C.ar        1 UNL1     0.0226
     10 C         -5.082717   -2.274126   5.432255 C.ar        1 UNL1     0.1343
     11 C         -4.615017   -1.434271   6.442077 C.ar        1 UNL1     0.1007
     12 C         -3.740584   -0.398793   6.101582 C.ar        1 UNL1     0.1389
     13 C         -3.292957   -0.246651   4.775718 C.ar        1 UNL1     0.0229
     14 C         -4.989547   -1.600398   7.865553 C.2        1 UNL1     0.1740
     15 C         -4.224033   -0.755612   8.841192 C.3        1 UNL1     0.0520
     16 C         -4.036704   0.628949   8.236332 C.3        1 UNL1     0.1322
     17 O         -3.302138   0.55105   6.994795 O.3        1 UNL1     -0.4828
     18 C         -5.327731   1.447507   8.159273 C.ar        1 UNL1     -0.0067
     19 C         -5.667401   2.093144   6.952628 C.ar        1 UNL1     -0.0516
     20 C         -6.8162   2.888133   6.861991 C.ar        1 UNL1     -0.0198
     21 C         -7.627735   3.050989   7.970465 C.ar        1 UNL1     0.1169
     22 C         -7.337668   2.401074   9.163072 C.ar        1 UNL1     -0.0198
     23 C         -6.198896   1.591183   9.248687 C.ar        1 UNL1     -0.0516
     24 O         -8.717513   3.863086   7.855217 O.3        1 UNL1     -0.5068
     25 O         -5.81124   -2.425228   8.256655 O.2        1 UNL1     -0.2917
     26 O         -5.968391   -3.275996   5.703221 O.3        1 UNL1     -0.5058
     27 O         -0.229087   -0.19565   2.54149 O.3        1 UNL1     -0.3648
     28 O         0.264286   -1.953061   -0.57143 O.3        1 UNL1     -0.3841
     29 O         -2.459741   0.356711   -0.262442 O.3        1 UNL1     -0.3863
     30 O         -2.44908   -3.317144   -0.20969 O.3        1 UNL1     -0.3829
     31 H         0.62325   -1.846879   1.816954 H        1 UNL1     0.0937
     32 H         0.0   0.0   0.0 H        1 UNL1     0.0671
     33 H         -1.867762   -1.195013   -1.413724 H        1 UNL1     0.0649
     34 H         -3.84374   -1.835608   0.058465 H        1 UNL1     0.0683
     35 H         -3.200769   -2.941521   2.150783 H        1 UNL1     0.1085
     36 H         -4.993139   -2.843882   3.38601 H        1 UNL1     0.0691
     37 H         -2.613089   0.568196   4.536351 H        1 UNL1     0.0691
     38 H         -3.259444   -1.243851   9.016455 H        1 UNL1     0.0385
     39 H         -4.768137   -0.722245   9.791253 H        1 UNL1     0.0385
     40 H         -3.376498   1.19039   8.911188 H        1 UNL1     0.0789
     41 H         -5.041843   1.988522   6.070936 H        1 UNL1     0.0623
     42 H         -7.06097   3.390399   5.929345 H        1 UNL1     0.0654
     43 H         -7.974499   2.509606   10.032887 H        1 UNL1     0.0654
     44 H         -6.008521   1.089993   10.192833 H        1 UNL1     0.0623
     45 H         -8.411472   4.757355   7.633094 H        1 UNL1     0.2921
     46 H         -5.605122   -3.850439   6.395654 H        1 UNL1     0.2922
     47 H         0.513622   0.35855   2.263811 H        1 UNL1     0.2126
     48 H         1.199901   -1.878227   -0.301695 H        1 UNL1     0.2101
     49 H         -2.019227   0.939598   -0.901178 H        1 UNL1     0.2100
     50 H         -2.686841   -3.331348   -1.159943 H        1 UNL1     0.2102
@<TRIPOS>BOND
     1     1     2    1
     2     1     6    1
     3     2     3    1
     4     3     4    1
     5     3    29    1
     6     3    33    1
     7     4     5    1
     8     5     6    1
     9     5     7    1
    10     5    35    1
    11     7     8    1
    12     8     9   ar
    13     8    13   ar
    14     9    10   ar
    15     9    36    1
    16    10    11   ar
    17    10    26    1
    18    11    12   ar
    19    11    14    1
    20    12    13   ar
    21    12    17    1
    22    13    37    1
    23    14    15    1
    24    14    25    2
    25    15    16    1
    26    15    38    1
    27    15    39    1
    28    16    17    1
    29    16    18    1
    30    16    40    1
    31    18    19   ar
    32    18    23   ar
    33    19    20   ar
    34    19    41    1
    35    20    21   ar
    36    20    42    1
    37    21    22   ar
    38    21    24    1
    39    22    23   ar
    40    22    43    1
    41    23    44    1
    42    24    45    1
    43    26    46    1
    44    27    47    1
    45    28    48    1
    46    29    49    1
    47    30    50    1
    48     1    31    1
    49     1    27    1
    50     2    32    1
    51     2    28    1
    52     4    34    1
    53     4    30    1
