@<TRIPOS>MOLECULE
*****
 50 53 0 0 0
SMALL
GASTEIGER

@<TRIPOS>ATOM
     1 C         0.035202   -0.42292   2.142593 C.3        1 UNL1     0.1889
     2 C         -0.715573   -0.080499   0.827669 C.3        1 UNL1     0.1342
     3 C         -1.559905   1.201724   0.886604 C.3        1 UNL1     0.1174
     4 C         -2.193581   1.432432   2.260776 C.3        1 UNL1     0.1456
     5 C         -1.193116   1.2306   3.413467 C.3        1 UNL1     0.2326
     6 O         -0.633116   -0.078941   3.347343 O.3        1 UNL1     -0.3076
     7 O         -0.198756   2.267656   3.497628 O.3        1 UNL1     -0.4605
     8 C         -0.597991   3.442054   4.109942 C.ar        1 UNL1     0.1310
     9 C         0.229655   4.537316   4.379579 C.ar        1 UNL1     0.0226
     10 C         -0.274032   5.692116   4.990021 C.ar        1 UNL1     0.1343
     11 C         -1.624104   5.78894   5.324343 C.ar        1 UNL1     0.1007
     12 C         -2.451783   4.686107   5.097429 C.ar        1 UNL1     0.1389
     13 C         -1.944523   3.524077   4.486033 C.ar        1 UNL1     0.0229
     14 C         -2.226604   7.016309   5.89418 C.2        1 UNL1     0.1740
     15 C         -3.724434   7.023083   5.983665 C.3        1 UNL1     0.0520
     16 C         -4.18666   5.642856   6.43007 C.3        1 UNL1     0.1322
     17 O         -3.770464   4.632276   5.485306 O.3        1 UNL1     -0.4828
     18 C         -3.852592   5.323215   7.889163 C.ar        1 UNL1     -0.0067
     19 C         -4.620998   5.904185   8.918843 C.ar        1 UNL1     -0.0516
     20 C         -4.312765   5.670554   10.264343 C.ar        1 UNL1     -0.0198
     21 C         -3.236571   4.865595   10.592481 C.ar        1 UNL1     0.1169
     22 C         -2.481566   4.252494   9.601061 C.ar        1 UNL1     -0.0198
     23 C         -2.80089   4.471131   8.255592 C.ar        1 UNL1     -0.0516
     24 O         -2.943575   4.691412   11.913167 O.3        1 UNL1     -0.5068
     25 O         -1.573103   8.008507   6.205572 O.2        1 UNL1     -0.2917
     26 O         0.585986   6.724584   5.226588 O.3        1 UNL1     -0.5058
     27 O         1.386324   0.009723   2.151265 O.3        1 UNL1     -0.3648
     28 O         -1.607426   -1.166719   0.515532 O.3        1 UNL1     -0.3841
     29 O         -0.806548   2.326403   0.428691 O.3        1 UNL1     -0.3863
     30 O         -3.29411   0.51369   2.435235 O.3        1 UNL1     -0.3829
     31 H         0.101575   -1.515381   2.189527 H        1 UNL1     0.0937
     32 H         0.0   0.0   0.0 H        1 UNL1     0.0671
     33 H         -2.385925   1.092548   0.170021 H        1 UNL1     0.0649
     34 H         -2.609254   2.444655   2.315744 H        1 UNL1     0.0683
     35 H         -1.817668   1.265271   4.314917 H        1 UNL1     0.1085
     36 H         1.275633   4.545763   4.093259 H        1 UNL1     0.0691
     37 H         -2.609318   2.678854   4.321299 H        1 UNL1     0.0691
     38 H         -4.114468   7.267974   4.989971 H        1 UNL1     0.0385
     39 H         -4.038973   7.809703   6.677979 H        1 UNL1     0.0385
     40 H         -5.283657   5.635271   6.374743 H        1 UNL1     0.0789
     41 H         -5.465166   6.54718   8.687348 H        1 UNL1     0.0623
     42 H         -4.90557   6.133852   11.049168 H        1 UNL1     0.0654
     43 H         -1.64592   3.608203   9.847018 H        1 UNL1     0.0654
     44 H         -2.196246   3.967699   7.50739 H        1 UNL1     0.0623
     45 H         -3.360287   3.86755   12.2137 H        1 UNL1     0.2921
     46 H         0.092493   7.482842   5.577191 H        1 UNL1     0.2922
     47 H         1.912848   -0.524411   1.540256 H        1 UNL1     0.2126
     48 H         -2.484233   -0.769887   0.3498 H        1 UNL1     0.2101
     49 H         -1.319268   3.140615   0.555066 H        1 UNL1     0.2100
     50 H         -3.754372   0.427675   1.574727 H        1 UNL1     0.2102
@<TRIPOS>BOND
     1     1     2    1
     2     1     6    1
     3     2     3    1
     4     3     4    1
     5     3    29    1
     6     3    33    1
     7     4     5    1
     8     5     6    1
     9     5     7    1
    10     5    35    1
    11     7     8    1
    12     8     9   ar
    13     8    13   ar
    14     9    10   ar
    15     9    36    1
    16    10    11   ar
    17    10    26    1
    18    11    12   ar
    19    11    14    1
    20    12    13   ar
    21    12    17    1
    22    13    37    1
    23    14    15    1
    24    14    25    2
    25    15    16    1
    26    15    38    1
    27    15    39    1
    28    16    17    1
    29    16    18    1
    30    16    40    1
    31    18    19   ar
    32    18    23   ar
    33    19    20   ar
    34    19    41    1
    35    20    21   ar
    36    20    42    1
    37    21    22   ar
    38    21    24    1
    39    22    23   ar
    40    22    43    1
    41    23    44    1
    42    24    45    1
    43    26    46    1
    44    27    47    1
    45    28    48    1
    46    29    49    1
    47    30    50    1
    48     1    31    1
    49     1    27    1
    50     2    32    1
    51     2    28    1
    52     4    34    1
    53     4    30    1
