@<TRIPOS>MOLECULE
*****
 50 53 0 0 0
SMALL
GASTEIGER

@<TRIPOS>ATOM
     1 C         -1.511344   -1.447722   0.625094 C.3        1 UNL1     0.1889
     2 C         -0.756971   -0.64237   -0.466816 C.3        1 UNL1     0.1342
     3 C         -1.657788   0.217343   -1.366753 C.3        1 UNL1     0.1174
     4 C         -3.017894   -0.430644   -1.637567 C.3        1 UNL1     0.1456
     5 C         -3.673365   -0.983495   -0.358865 C.3        1 UNL1     0.2326
     6 O         -2.801408   -1.921502   0.267795 O.3        1 UNL1     -0.3076
     7 O         -4.138273   0.042743   0.536688 O.3        1 UNL1     -0.4605
     8 C         -5.260932   -0.267075   1.283131 C.ar        1 UNL1     0.1310
     9 C         -6.422708   -0.86888   0.787745 C.ar        1 UNL1     0.0226
     10 C         -7.502976   -1.15895   1.629637 C.ar        1 UNL1     0.1343
     11 C         -7.438253   -0.875658   2.993235 C.ar        1 UNL1     0.1007
     12 C         -6.299636   -0.237327   3.492102 C.ar        1 UNL1     0.1389
     13 C         -5.214626   0.056636   2.64489 C.ar        1 UNL1     0.0229
     14 C         -8.516157   -1.236941   3.94284 C.2        1 UNL1     0.1740
     15 C         -8.186663   -1.061907   5.396232 C.3        1 UNL1     0.0520
     16 C         -7.398911   0.230682   5.559386 C.3        1 UNL1     0.1322
     17 O         -6.173663   0.18439   4.795387 O.3        1 UNL1     -0.4828
     18 C         -8.235349   1.493768   5.340962 C.ar        1 UNL1     -0.0067
     19 C         -8.521516   2.33306   6.437279 C.ar        1 UNL1     -0.0516
     20 C         -9.323002   3.470277   6.281336 C.ar        1 UNL1     -0.0198
     21 C         -9.849171   3.774326   5.038545 C.ar        1 UNL1     0.1169
     22 C         -9.557802   2.985686   3.933109 C.ar        1 UNL1     -0.0198
     23 C         -8.741224   1.858666   4.085042 C.ar        1 UNL1     -0.0516
     24 O         -10.656315   4.868735   4.932775 O.3        1 UNL1     -0.5068
     25 O         -9.588006   -1.725426   3.59498 O.2        1 UNL1     -0.2917
     26 O         -8.607403   -1.745271   1.083695 O.3        1 UNL1     -0.5058
     27 O         -1.519876   -0.810763   1.892768 O.3        1 UNL1     -0.3648
     28 O         -0.060891   -1.570707   -1.319089 O.3        1 UNL1     -0.3841
     29 O         -1.770286   1.545352   -0.851128 O.3        1 UNL1     -0.3863
     30 O         -2.847844   -1.513835   -2.577498 O.3        1 UNL1     -0.3829
     31 H         -0.937449   -2.366381   0.788767 H        1 UNL1     0.0937
     32 H         0.0   0.0   0.0 H        1 UNL1     0.0671
     33 H         -1.157009   0.323383   -2.339222 H        1 UNL1     0.0649
     34 H         -3.692025   0.295994   -2.104412 H        1 UNL1     0.0683
     35 H         -4.53799   -1.549127   -0.728141 H        1 UNL1     0.1085
     36 H         -6.512934   -1.164629   -0.251732 H        1 UNL1     0.0691
     37 H         -4.340081   0.554923   3.057655 H        1 UNL1     0.0691
     38 H         -7.593279   -1.928082   5.707941 H        1 UNL1     0.0385
     39 H         -9.115499   -1.056805   5.976763 H        1 UNL1     0.0385
     40 H         -7.068339   0.278413   6.605791 H        1 UNL1     0.0789
     41 H         -8.127981   2.111056   7.42495 H        1 UNL1     0.0623
     42 H         -9.546217   4.102983   7.13683 H        1 UNL1     0.0654
     43 H         -9.952293   3.223027   2.952315 H        1 UNL1     0.0654
     44 H         -8.525629   1.271032   3.197884 H        1 UNL1     0.0623
     45 H         -10.132797   5.602116   4.571116 H        1 UNL1     0.2921
     46 H         -8.96672   -2.398994   1.704137 H        1 UNL1     0.2922
     47 H         -0.973139   -1.304929   2.519457 H        1 UNL1     0.2126
     48 H         -0.185394   -1.256606   -2.235371 H        1 UNL1     0.2101
     49 H         -2.594885   1.635015   -0.347352 H        1 UNL1     0.2100
     50 H         -2.871261   -2.354904   -2.075735 H        1 UNL1     0.2102
@<TRIPOS>BOND
     1     1     2    1
     2     1     6    1
     3     2     3    1
     4     3     4    1
     5     3    29    1
     6     3    33    1
     7     4     5    1
     8     5     6    1
     9     5     7    1
    10     5    35    1
    11     7     8    1
    12     8     9   ar
    13     8    13   ar
    14     9    10   ar
    15     9    36    1
    16    10    11   ar
    17    10    26    1
    18    11    12   ar
    19    11    14    1
    20    12    13   ar
    21    12    17    1
    22    13    37    1
    23    14    15    1
    24    14    25    2
    25    15    16    1
    26    15    38    1
    27    15    39    1
    28    16    17    1
    29    16    18    1
    30    16    40    1
    31    18    19   ar
    32    18    23   ar
    33    19    20   ar
    34    19    41    1
    35    20    21   ar
    36    20    42    1
    37    21    22   ar
    38    21    24    1
    39    22    23   ar
    40    22    43    1
    41    23    44    1
    42    24    45    1
    43    26    46    1
    44    27    47    1
    45    28    48    1
    46    29    49    1
    47    30    50    1
    48     1    31    1
    49     1    27    1
    50     2    32    1
    51     2    28    1
    52     4    34    1
    53     4    30    1
