@<TRIPOS>MOLECULE
*****
 50 53 0 0 0
SMALL
GASTEIGER

@<TRIPOS>ATOM
     1 C         -1.537236   -0.568316   1.443859 C.3        1 UNL1     0.1889
     2 C         -0.666567   0.492775   0.718626 C.3        1 UNL1     0.1342
     3 C         0.170937   1.381164   1.651266 C.3        1 UNL1     0.1174
     4 C         -0.536457   1.685674   2.974136 C.3        1 UNL1     0.1456
     5 C         -1.155083   0.430063   3.615313 C.3        1 UNL1     0.2326
     6 O         -2.064913   -0.182765   2.704534 O.3        1 UNL1     -0.3076
     7 O         -0.177452   -0.486053   4.140946 O.3        1 UNL1     -0.4605
     8 C         0.768595   0.058638   4.990555 C.ar        1 UNL1     0.1310
     9 C         2.019006   0.551215   4.601788 C.ar        1 UNL1     0.0226
     10 C         2.903208   1.100909   5.537697 C.ar        1 UNL1     0.1343
     11 C         2.548379   1.193166   6.882846 C.ar        1 UNL1     0.1007
     12 C         1.319227   0.66732   7.289609 C.ar        1 UNL1     0.1389
     13 C         0.431439   0.112254   6.348778 C.ar        1 UNL1     0.0229
     14 C         3.408897   1.840308   7.900131 C.2        1 UNL1     0.1740
     15 C         2.778301   2.050201   9.245435 C.3        1 UNL1     0.0520
     16 C         1.951077   0.818599   9.587213 C.3        1 UNL1     0.1322
     17 O         0.914747   0.607657   8.603041 O.3        1 UNL1     -0.4828
     18 C         2.792223   -0.421682   9.8985 C.ar        1 UNL1     -0.0067
     19 C         2.163056   -1.573851   10.413155 C.ar        1 UNL1     -0.0516
     20 C         2.909245   -2.708605   10.753003 C.ar        1 UNL1     -0.0198
     21 C         4.28302   -2.701144   10.590166 C.ar        1 UNL1     0.1169
     22 C         4.927389   -1.59366   10.054344 C.ar        1 UNL1     -0.0198
     23 C         4.179282   -0.465474   9.697146 C.ar        1 UNL1     -0.0516
     24 O         4.98082   -3.810692   10.967498 O.3        1 UNL1     -0.5068
     25 O         4.538396   2.259966   7.662212 O.2        1 UNL1     -0.2917
     26 O         4.107909   1.562643   5.093759 O.3        1 UNL1     -0.5058
     27 O         -0.935475   -1.851943   1.498375 O.3        1 UNL1     -0.3648
     28 O         -1.536106   1.360201   -0.032492 O.3        1 UNL1     -0.3841
     29 O         1.477504   0.832572   1.835825 O.3        1 UNL1     -0.3863
     30 O         -1.584434   2.651304   2.739629 O.3        1 UNL1     -0.3829
     31 H         -2.430245   -0.715142   0.826562 H        1 UNL1     0.0937
     32 H         0.0   0.0   0.0 H        1 UNL1     0.0671
     33 H         0.327614   2.344232   1.145624 H        1 UNL1     0.0649
     34 H         0.167925   2.141794   3.67855 H        1 UNL1     0.0683
     35 H         -1.752985   0.824679   4.446378 H        1 UNL1     0.1085
     36 H         2.330876   0.559318   3.563138 H        1 UNL1     0.0691
     37 H         -0.519005   -0.291357   6.691194 H        1 UNL1     0.0691
     38 H         2.148107   2.94357   9.180046 H        1 UNL1     0.0385
     39 H         3.564168   2.239334   9.984638 H        1 UNL1     0.0385
     40 H         1.407205   1.041264   10.515191 H        1 UNL1     0.0789
     41 H         1.087121   -1.601532   10.55893 H        1 UNL1     0.0623
     42 H         2.413868   -3.586606   11.160098 H        1 UNL1     0.0654
     43 H         6.000949   -1.582647   9.908548 H        1 UNL1     0.0654
     44 H         4.714193   0.378077   9.271544 H        1 UNL1     0.0623
     45 H         4.434461   -4.32049   11.587429 H        1 UNL1     0.2921
     46 H         4.296635   2.421162   5.504537 H        1 UNL1     0.2922
     47 H         -0.381994   -1.928987   2.288048 H        1 UNL1     0.2126
     48 H         -1.885768   0.830932   -0.775017 H        1 UNL1     0.2101
     49 H         1.689461   0.231522   1.103973 H        1 UNL1     0.2100
     50 H         -1.515746   2.950881   1.809442 H        1 UNL1     0.2102
@<TRIPOS>BOND
     1     1     2    1
     2     1     6    1
     3     2     3    1
     4     3     4    1
     5     3    29    1
     6     3    33    1
     7     4     5    1
     8     5     6    1
     9     5     7    1
    10     5    35    1
    11     7     8    1
    12     8     9   ar
    13     8    13   ar
    14     9    10   ar
    15     9    36    1
    16    10    11   ar
    17    10    26    1
    18    11    12   ar
    19    11    14    1
    20    12    13   ar
    21    12    17    1
    22    13    37    1
    23    14    15    1
    24    14    25    2
    25    15    16    1
    26    15    38    1
    27    15    39    1
    28    16    17    1
    29    16    18    1
    30    16    40    1
    31    18    19   ar
    32    18    23   ar
    33    19    20   ar
    34    19    41    1
    35    20    21   ar
    36    20    42    1
    37    21    22   ar
    38    21    24    1
    39    22    23   ar
    40    22    43    1
    41    23    44    1
    42    24    45    1
    43    26    46    1
    44    27    47    1
    45    28    48    1
    46    29    49    1
    47    30    50    1
    48     1    31    1
    49     1    27    1
    50     2    32    1
    51     2    28    1
    52     4    34    1
    53     4    30    1
