@<TRIPOS>MOLECULE
*****
 50 53 0 0 0
SMALL
GASTEIGER

@<TRIPOS>ATOM
     1 C         -0.698103   -1.819586   0.986187 C.3        1 UNL1     0.1889
     2 C         -0.003541   -1.080631   -0.189173 C.3        1 UNL1     0.1342
     3 C         -0.624055   -1.345693   -1.569451 C.3        1 UNL1     0.1174
     4 C         -1.156896   -2.773139   -1.716408 C.3        1 UNL1     0.1456
     5 C         -1.994955   -3.218052   -0.503942 C.3        1 UNL1     0.2326
     6 O         -1.222003   -3.105475   0.688845 O.3        1 UNL1     -0.3076
     7 O         -3.270872   -2.55806   -0.415802 O.3        1 UNL1     -0.4605
     8 C         -4.297146   -3.295313   0.147002 C.ar        1 UNL1     0.1310
     9 C         -4.600865   -4.62633   -0.15869 C.ar        1 UNL1     0.0226
     10 C         -5.652897   -5.293657   0.479907 C.ar        1 UNL1     0.1343
     11 C         -6.412378   -4.652869   1.457874 C.ar        1 UNL1     0.1007
     12 C         -6.144902   -3.311095   1.742273 C.ar        1 UNL1     0.1389
     13 C         -5.088733   -2.639518   1.098129 C.ar        1 UNL1     0.0229
     14 C         -7.480786   -5.33571   2.223633 C.2        1 UNL1     0.1740
     15 C         -8.040146   -4.567035   3.384582 C.3        1 UNL1     0.0520
     16 C         -8.180555   -3.10784   2.973494 C.3        1 UNL1     0.1322
     17 O         -6.898007   -2.552377   2.607979 O.3        1 UNL1     -0.4828
     18 C         -9.293547   -2.859673   1.952521 C.ar        1 UNL1     -0.0067
     19 C         -9.020004   -2.089984   0.803188 C.ar        1 UNL1     -0.0516
     20 C         -10.027042   -1.804361   -0.126466 C.ar        1 UNL1     -0.0198
     21 C         -11.310485   -2.275377   0.085067 C.ar        1 UNL1     0.1169
     22 C         -11.603059   -3.064013   1.190188 C.ar        1 UNL1     -0.0198
     23 C         -10.591944   -3.365249   2.110492 C.ar        1 UNL1     -0.0516
     24 O         -12.273778   -1.945297   -0.822409 O.3        1 UNL1     -0.5068
     25 O         -7.847018   -6.485563   1.995166 O.2        1 UNL1     -0.2917
     26 O         -5.897935   -6.590923   0.13546 O.3        1 UNL1     -0.5058
     27 O         -1.640569   -1.017699   1.680106 O.3        1 UNL1     -0.3648
     28 O         1.370229   -1.507246   -0.248008 O.3        1 UNL1     -0.3841
     29 O         -1.603887   -0.354098   -1.883775 O.3        1 UNL1     -0.3863
     30 O         -0.044056   -3.680783   -1.869573 O.3        1 UNL1     -0.3829
     31 H         0.079785   -2.025633   1.7295 H        1 UNL1     0.0937
     32 H         0.0   0.0   0.0 H        1 UNL1     0.0671
     33 H         0.167269   -1.222803   -2.322064 H        1 UNL1     0.0649
     34 H         -1.763919   -2.854059   -2.62491 H        1 UNL1     0.0683
     35 H         -2.161611   -4.288776   -0.676147 H        1 UNL1     0.1085
     36 H         -4.012581   -5.196769   -0.869071 H        1 UNL1     0.0691
     37 H         -4.901693   -1.594686   1.336529 H        1 UNL1     0.0691
     38 H         -7.341946   -4.676209   4.221317 H        1 UNL1     0.0385
     39 H         -8.998472   -5.008325   3.678949 H        1 UNL1     0.0385
     40 H         -8.477664   -2.546255   3.869523 H        1 UNL1     0.0789
     41 H         -8.022797   -1.701003   0.619008 H        1 UNL1     0.0623
     42 H         -9.806339   -1.199782   -1.002699 H        1 UNL1     0.0654
     43 H         -12.601248   -3.450613   1.357731 H        1 UNL1     0.0654
     44 H         -10.853558   -3.992882   2.956943 H        1 UNL1     0.0623
     45 H         -12.35508   -0.97804   -0.845249 H        1 UNL1     0.2921
     46 H         -5.855048   -7.149603   0.927577 H        1 UNL1     0.2922
     47 H         -1.220067   -0.206814   1.998702 H        1 UNL1     0.2126
     48 H         1.779572   -1.24998   0.600511 H        1 UNL1     0.2101
     49 H         -1.170885   0.500777   -2.037049 H        1 UNL1     0.2100
     50 H         0.398435   -3.474665   -2.718944 H        1 UNL1     0.2102
@<TRIPOS>BOND
     1     1     2    1
     2     1     6    1
     3     2     3    1
     4     3     4    1
     5     3    29    1
     6     3    33    1
     7     4     5    1
     8     5     6    1
     9     5     7    1
    10     5    35    1
    11     7     8    1
    12     8     9   ar
    13     8    13   ar
    14     9    10   ar
    15     9    36    1
    16    10    11   ar
    17    10    26    1
    18    11    12   ar
    19    11    14    1
    20    12    13   ar
    21    12    17    1
    22    13    37    1
    23    14    15    1
    24    14    25    2
    25    15    16    1
    26    15    38    1
    27    15    39    1
    28    16    17    1
    29    16    18    1
    30    16    40    1
    31    18    19   ar
    32    18    23   ar
    33    19    20   ar
    34    19    41    1
    35    20    21   ar
    36    20    42    1
    37    21    22   ar
    38    21    24    1
    39    22    23   ar
    40    22    43    1
    41    23    44    1
    42    24    45    1
    43    26    46    1
    44    27    47    1
    45    28    48    1
    46    29    49    1
    47    30    50    1
    48     1    31    1
    49     1    27    1
    50     2    32    1
    51     2    28    1
    52     4    34    1
    53     4    30    1
