@<TRIPOS>MOLECULE
*****
 50 53 0 0 0
SMALL
GASTEIGER

@<TRIPOS>ATOM
     1 C         -0.329996   -1.327148   1.703111 C.3        1 UNL1     0.1889
     2 C         -0.4615   -0.975635   0.196762 C.3        1 UNL1     0.1342
     3 C         -1.902601   -0.964827   -0.335757 C.3        1 UNL1     0.1174
     4 C         -2.787651   -2.0243   0.325546 C.3        1 UNL1     0.1456
     5 C         -2.635278   -2.048179   1.8574 C.3        1 UNL1     0.2326
     6 O         -1.270022   -2.264749   2.206746 O.3        1 UNL1     -0.3076
     7 O         -3.210903   -0.901075   2.508652 O.3        1 UNL1     -0.4605
     8 C         -3.719629   -1.115841   3.776959 C.ar        1 UNL1     0.1310
     9 C         -4.534679   -2.189281   4.152084 C.ar        1 UNL1     0.0226
     10 C         -4.986697   -2.328875   5.469694 C.ar        1 UNL1     0.1343
     11 C         -4.614692   -1.410428   6.450464 C.ar        1 UNL1     0.1007
     12 C         -3.834859   -0.31192   6.079083 C.ar        1 UNL1     0.1389
     13 C         -3.382667   -0.170351   4.753598 C.ar        1 UNL1     0.0229
     14 C         -4.994336   -1.555298   7.874907 C.2        1 UNL1     0.1740
     15 C         -4.325761   -0.605493   8.824869 C.3        1 UNL1     0.0520
     16 C         -4.258243   0.765937   8.167161 C.3        1 UNL1     0.1322
     17 O         -3.500362   0.708688   6.938581 O.3        1 UNL1     -0.4828
     18 C         -5.61826   1.456875   8.041938 C.ar        1 UNL1     -0.0067
     19 C         -5.998727   2.018047   6.805595 C.ar        1 UNL1     -0.0516
     20 C         -7.214765   2.698226   6.66931 C.ar        1 UNL1     -0.0198
     21 C         -8.053872   2.830131   7.761247 C.ar        1 UNL1     0.1169
     22 C         -7.72219   2.259508   8.983219 C.ar        1 UNL1     -0.0198
     23 C         -6.514683   1.563365   9.115008 C.ar        1 UNL1     -0.0516
     24 O         -9.212375   3.531815   7.60028 O.3        1 UNL1     -0.5068
     25 O         -5.741986   -2.43735   8.289018 O.2        1 UNL1     -0.2917
     26 O         -5.779754   -3.3977   5.770124 O.3        1 UNL1     -0.5058
     27 O         -0.225276   -0.188107   2.5424 O.3        1 UNL1     -0.3648
     28 O         0.269514   -1.95409   -0.56544 O.3        1 UNL1     -0.3841
     29 O         -2.461147   0.348371   -0.26046 O.3        1 UNL1     -0.3863
     30 O         -2.439223   -3.325244   -0.195828 O.3        1 UNL1     -0.3829
     31 H         0.631173   -1.839074   1.822129 H        1 UNL1     0.0937
     32 H         0.0   0.0   0.0 H        1 UNL1     0.0671
     33 H         -1.865898   -1.205268   -1.407466 H        1 UNL1     0.0649
     34 H         -3.838051   -1.847098   0.069307 H        1 UNL1     0.0683
     35 H         -3.189067   -2.944262   2.164373 H        1 UNL1     0.1085
     36 H         -4.812793   -2.966917   3.449193 H        1 UNL1     0.0691
     37 H         -2.777651   0.694439   4.489803 H        1 UNL1     0.0691
     38 H         -3.322898   -0.994437   9.031061 H        1 UNL1     0.0385
     39 H         -4.885352   -0.586114   9.766283 H        1 UNL1     0.0385
     40 H         -3.663546   1.412329   8.82673 H        1 UNL1     0.0789
     41 H         -5.353458   1.936058   5.935793 H        1 UNL1     0.0623
     42 H         -7.491446   3.136844   5.713761 H        1 UNL1     0.0654
     43 H         -8.378873   2.343852   9.840869 H        1 UNL1     0.0654
     44 H         -6.292424   1.121224   10.081423 H        1 UNL1     0.0623
     45 H         -9.958275   2.940211   7.790953 H        1 UNL1     0.2921
     46 H         -5.374273   -3.909898   6.487515 H        1 UNL1     0.2922
     47 H         0.51719   0.36595   2.263789 H        1 UNL1     0.2126
     48 H         1.202333   -1.887938   -0.284004 H        1 UNL1     0.2101
     49 H         -2.023041   0.930588   -0.90146 H        1 UNL1     0.2100
     50 H         -2.672925   -3.341322   -1.147057 H        1 UNL1     0.2102
@<TRIPOS>BOND
     1     1     2    1
     2     1     6    1
     3     2     3    1
     4     3     4    1
     5     3    29    1
     6     3    33    1
     7     4     5    1
     8     5     6    1
     9     5     7    1
    10     5    35    1
    11     7     8    1
    12     8     9   ar
    13     8    13   ar
    14     9    10   ar
    15     9    36    1
    16    10    11   ar
    17    10    26    1
    18    11    12   ar
    19    11    14    1
    20    12    13   ar
    21    12    17    1
    22    13    37    1
    23    14    15    1
    24    14    25    2
    25    15    16    1
    26    15    38    1
    27    15    39    1
    28    16    17    1
    29    16    18    1
    30    16    40    1
    31    18    19   ar
    32    18    23   ar
    33    19    20   ar
    34    19    41    1
    35    20    21   ar
    36    20    42    1
    37    21    22   ar
    38    21    24    1
    39    22    23   ar
    40    22    43    1
    41    23    44    1
    42    24    45    1
    43    26    46    1
    44    27    47    1
    45    28    48    1
    46    29    49    1
    47    30    50    1
    48     1    31    1
    49     1    27    1
    50     2    32    1
    51     2    28    1
    52     4    34    1
    53     4    30    1
