@<TRIPOS>MOLECULE
*****
 50 53 0 0 0
SMALL
GASTEIGER

@<TRIPOS>ATOM
     1 C         -0.36138   -1.342183   1.68486 C.3        1 UNL1     0.1889
     2 C         -0.477749   -0.970652   0.182075 C.3        1 UNL1     0.1342
     3 C         -1.915055   -0.931129   -0.359272 C.3        1 UNL1     0.1174
     4 C         -2.820578   -1.984604   0.283641 C.3        1 UNL1     0.1456
     5 C         -2.678454   -2.029193   1.816017 C.3        1 UNL1     0.2326
     6 O         -1.318978   -2.271069   2.171248 O.3        1 UNL1     -0.3076
     7 O         -3.240498   -0.88119   2.477467 O.3        1 UNL1     -0.4605
     8 C         -3.761054   -1.103322   3.73969 C.ar        1 UNL1     0.1310
     9 C         -4.595258   -2.168324   4.096306 C.ar        1 UNL1     0.0226
     10 C         -5.058274   -2.316786   5.409119 C.ar        1 UNL1     0.1343
     11 C         -4.678613   -1.416248   6.403468 C.ar        1 UNL1     0.1007
     12 C         -3.879256   -0.325677   6.050672 C.ar        1 UNL1     0.1389
     13 C         -3.415981   -0.175146   4.73001 C.ar        1 UNL1     0.0229
     14 C         -5.070068   -1.572415   7.823514 C.2        1 UNL1     0.1740
     15 C         -4.393184   -0.644801   8.789385 C.3        1 UNL1     0.0520
     16 C         -4.299851   0.733278   8.148961 C.3        1 UNL1     0.1322
     17 O         -3.534687   0.679062   6.924765 O.3        1 UNL1     -0.4828
     18 C         -5.648051   1.446921   8.023289 C.ar        1 UNL1     -0.0067
     19 C         -6.010112   2.031472   6.792262 C.ar        1 UNL1     -0.0516
     20 C         -7.214433   2.732283   6.656476 C.ar        1 UNL1     -0.0198
     21 C         -8.059967   2.86161   7.743754 C.ar        1 UNL1     0.1169
     22 C         -7.746717   2.268571   8.959903 C.ar        1 UNL1     -0.0198
     23 C         -6.551135   1.551995   9.0909 C.ar        1 UNL1     -0.0516
     24 O         -9.206238   3.583382   7.584037 O.3        1 UNL1     -0.5068
     25 O         -5.83416   -2.447596   8.221895 O.2        1 UNL1     -0.2917
     26 O         -5.869912   -3.376613   5.691247 O.3        1 UNL1     -0.5058
     27 O         -0.244509   -0.215039   2.538485 O.3        1 UNL1     -0.3648
     28 O         0.242977   -1.951118   -0.587306 O.3        1 UNL1     -0.3841
     29 O         -2.453754   0.389572   -0.271611 O.3        1 UNL1     -0.3863
     30 O         -2.488909   -3.284453   -0.251221 O.3        1 UNL1     -0.3829
     31 H         0.590992   -1.870335   1.803691 H        1 UNL1     0.0937
     32 H         0.0   0.0   0.0 H        1 UNL1     0.0671
     33 H         -1.875168   -1.159253   -1.433557 H        1 UNL1     0.0649
     34 H         -3.86645   -1.788085   0.023001 H        1 UNL1     0.0683
     35 H         -3.247963   -2.920198   2.108677 H        1 UNL1     0.1085
     36 H         -4.880719   -2.932921   3.382146 H        1 UNL1     0.0691
     37 H         -2.795787   0.683189   4.480785 H        1 UNL1     0.0691
     38 H         -3.397922   -1.051892   8.997371 H        1 UNL1     0.0385
     39 H         -4.958741   -0.628072   9.727279 H        1 UNL1     0.0385
     40 H         -3.699607   1.362221   8.820272 H        1 UNL1     0.0789
     41 H         -5.359364   1.95189   5.926327 H        1 UNL1     0.0623
     42 H         -7.476815   3.188701   5.70524 H        1 UNL1     0.0654
     43 H         -8.408744   2.350857   9.813635 H        1 UNL1     0.0654
     44 H         -6.343306   1.092745   10.052534 H        1 UNL1     0.0623
     45 H         -8.965159   4.492359   7.342462 H        1 UNL1     0.2921
     46 H         -5.478642   -3.902264   6.406796 H        1 UNL1     0.2922
     47 H         0.506426   0.332288   2.269432 H        1 UNL1     0.2126
     48 H         1.178054   -1.890295   -0.312235 H        1 UNL1     0.2101
     49 H         -2.002781   0.972506   -0.902964 H        1 UNL1     0.2100
     50 H         -2.716704   -3.285508   -1.204017 H        1 UNL1     0.2102
@<TRIPOS>BOND
     1     1     2    1
     2     1     6    1
     3     2     3    1
     4     3     4    1
     5     3    29    1
     6     3    33    1
     7     4     5    1
     8     5     6    1
     9     5     7    1
    10     5    35    1
    11     7     8    1
    12     8     9   ar
    13     8    13   ar
    14     9    10   ar
    15     9    36    1
    16    10    11   ar
    17    10    26    1
    18    11    12   ar
    19    11    14    1
    20    12    13   ar
    21    12    17    1
    22    13    37    1
    23    14    15    1
    24    14    25    2
    25    15    16    1
    26    15    38    1
    27    15    39    1
    28    16    17    1
    29    16    18    1
    30    16    40    1
    31    18    19   ar
    32    18    23   ar
    33    19    20   ar
    34    19    41    1
    35    20    21   ar
    36    20    42    1
    37    21    22   ar
    38    21    24    1
    39    22    23   ar
    40    22    43    1
    41    23    44    1
    42    24    45    1
    43    26    46    1
    44    27    47    1
    45    28    48    1
    46    29    49    1
    47    30    50    1
    48     1    31    1
    49     1    27    1
    50     2    32    1
    51     2    28    1
    52     4    34    1
    53     4    30    1
