@<TRIPOS>MOLECULE
*****
 50 53 0 0 0
SMALL
GASTEIGER

@<TRIPOS>ATOM
     1 C         -0.32341   -1.362221   1.676474 C.3        1 UNL1     0.1889
     2 C         -0.464495   -0.977613   0.179105 C.3        1 UNL1     0.1342
     3 C         -1.90945   -0.948906   -0.342188 C.3        1 UNL1     0.1174
     4 C         -2.79441   -2.018515   0.302715 C.3        1 UNL1     0.1456
     5 C         -2.630765   -2.076214   1.832504 C.3        1 UNL1     0.2326
     6 O         -1.263957   -2.306334   2.166797 O.3        1 UNL1     -0.3076
     7 O         -3.196264   -0.940937   2.512707 O.3        1 UNL1     -0.4605
     8 C         -3.707186   -1.18332   3.775141 C.ar        1 UNL1     0.1310
     9 C         -4.531886   -2.25862   4.122849 C.ar        1 UNL1     0.0226
     10 C         -4.98544   -2.427619   5.436481 C.ar        1 UNL1     0.1343
     11 C         -4.60547   -1.537767   6.440287 C.ar        1 UNL1     0.1007
     12 C         -3.815762   -0.437189   6.09696 C.ar        1 UNL1     0.1389
     13 C         -3.362013   -0.266016   4.775505 C.ar        1 UNL1     0.0229
     14 C         -4.986725   -1.715404   7.860584 C.2        1 UNL1     0.1740
     15 C         -4.309908   -0.796073   8.834391 C.3        1 UNL1     0.0520
     16 C         -4.229981   0.590976   8.211764 C.3        1 UNL1     0.1322
     17 O         -3.472356   0.558206   6.98213 O.3        1 UNL1     -0.4828
     18 C         -5.583738   1.297008   8.10414 C.ar        1 UNL1     -0.0067
     19 C         -5.95126   1.908242   6.887779 C.ar        1 UNL1     -0.0516
     20 C         -7.161051   2.602802   6.769648 C.ar        1 UNL1     -0.0198
     21 C         -8.006702   2.699356   7.860235 C.ar        1 UNL1     0.1169
     22 C         -7.687935   2.079618   9.061547 C.ar        1 UNL1     -0.0198
     23 C         -6.486765   1.369347   9.174516 C.ar        1 UNL1     -0.0516
     24 O         -9.158625   3.415895   7.71865 O.3        1 UNL1     -0.5068
     25 O         -5.742327   -2.600978   8.252132 O.2        1 UNL1     -0.2917
     26 O         -5.78809   -3.496603   5.709635 O.3        1 UNL1     -0.5058
     27 O         -0.20723   -0.242085   2.539367 O.3        1 UNL1     -0.3648
     28 O         0.256337   -1.942569   -0.609544 O.3        1 UNL1     -0.3841
     29 O         -2.461391   0.364814   -0.234329 O.3        1 UNL1     -0.3863
     30 O         -2.455838   -3.309401   -0.249256 O.3        1 UNL1     -0.3829
     31 H         0.636258   -1.880851   1.77716 H        1 UNL1     0.0937
     32 H         0.0   0.0   0.0 H        1 UNL1     0.0671
     33 H         -1.881818   -1.166258   -1.419088 H        1 UNL1     0.0649
     34 H         -3.845862   -1.831163   0.058283 H        1 UNL1     0.0683
     35 H         -3.186361   -2.976271   2.124206 H        1 UNL1     0.1085
     36 H         -4.816776   -3.015616   3.400412 H        1 UNL1     0.0691
     37 H         -2.74923   0.599756   4.533785 H        1 UNL1     0.0691
     38 H         -3.31061   -1.199086   9.030633 H        1 UNL1     0.0385
     39 H         -4.869523   -0.795632   9.775991 H        1 UNL1     0.0385
     40 H         -3.629683   1.215047   8.887558 H        1 UNL1     0.0789
     41 H         -5.3006   1.854578   6.019787 H        1 UNL1     0.0623
     42 H         -7.427691   3.079971   5.829848 H        1 UNL1     0.0654
     43 H         -8.349905   2.136192   9.917412 H        1 UNL1     0.0654
     44 H         -6.274647   0.888674   10.124676 H        1 UNL1     0.0623
     45 H         -8.924374   4.33777   7.52374 H        1 UNL1     0.2921
     46 H         -5.388695   -4.029008   6.415637 H        1 UNL1     0.2922
     47 H         0.522646   0.325502   2.254787 H        1 UNL1     0.2126
     48 H         1.196411   -1.864109   -0.356885 H        1 UNL1     0.2101
     49 H         -2.031357   0.956806   -0.871832 H        1 UNL1     0.2100
     50 H         -2.701891   -3.30579   -1.197496 H        1 UNL1     0.2102
@<TRIPOS>BOND
     1     1     2    1
     2     1     6    1
     3     2     3    1
     4     3     4    1
     5     3    29    1
     6     3    33    1
     7     4     5    1
     8     5     6    1
     9     5     7    1
    10     5    35    1
    11     7     8    1
    12     8     9   ar
    13     8    13   ar
    14     9    10   ar
    15     9    36    1
    16    10    11   ar
    17    10    26    1
    18    11    12   ar
    19    11    14    1
    20    12    13   ar
    21    12    17    1
    22    13    37    1
    23    14    15    1
    24    14    25    2
    25    15    16    1
    26    15    38    1
    27    15    39    1
    28    16    17    1
    29    16    18    1
    30    16    40    1
    31    18    19   ar
    32    18    23   ar
    33    19    20   ar
    34    19    41    1
    35    20    21   ar
    36    20    42    1
    37    21    22   ar
    38    21    24    1
    39    22    23   ar
    40    22    43    1
    41    23    44    1
    42    24    45    1
    43    26    46    1
    44    27    47    1
    45    28    48    1
    46    29    49    1
    47    30    50    1
    48     1    31    1
    49     1    27    1
    50     2    32    1
    51     2    28    1
    52     4    34    1
    53     4    30    1
