@<TRIPOS>MOLECULE
*****
 50 53 0 0 0
SMALL
GASTEIGER

@<TRIPOS>ATOM
     1 C         -1.120718   0.752716   1.717036 C.3        1 UNL1     0.1889
     2 C         0.208986   0.482559   0.962821 C.3        1 UNL1     0.1342
     3 C         1.225365   -0.368321   1.739636 C.3        1 UNL1     0.1174
     4 C         1.192433   -0.103257   3.246876 C.3        1 UNL1     0.1456
     5 C         -0.239842   -0.081815   3.811226 C.3        1 UNL1     0.2326
     6 O         -1.017702   0.89704   3.12592 O.3        1 UNL1     -0.3076
     7 O         -0.862859   -1.378794   3.84312 O.3        1 UNL1     -0.4605
     8 C         -1.056316   -1.927696   5.098034 C.ar        1 UNL1     0.1310
     9 C         -0.099614   -1.975878   6.117691 C.ar        1 UNL1     0.0226
     10 C         -0.398021   -2.539273   7.364063 C.ar        1 UNL1     0.1343
     11 C         -1.669065   -3.047199   7.6292 C.ar        1 UNL1     0.1007
     12 C         -2.620202   -3.041853   6.605435 C.ar        1 UNL1     0.1389
     13 C         -2.31909   -2.477699   5.351444 C.ar        1 UNL1     0.0229
     14 C         -2.064003   -3.577472   8.954714 C.2        1 UNL1     0.1740
     15 C         -3.52504   -3.872984   9.126744 C.3        1 UNL1     0.0520
     16 C         -4.042831   -4.50673   7.842916 C.3        1 UNL1     0.1322
     17 O         -3.866463   -3.612354   6.722177 O.3        1 UNL1     -0.4828
     18 C         -3.528414   -5.928811   7.606724 C.ar        1 UNL1     -0.0067
     19 C         -4.452241   -6.983341   7.455988 C.ar        1 UNL1     -0.0516
     20 C         -4.015149   -8.302439   7.286007 C.ar        1 UNL1     -0.0198
     21 C         -2.660019   -8.580403   7.272406 C.ar        1 UNL1     0.1169
     22 C         -1.72567   -7.559039   7.384865 C.ar        1 UNL1     -0.0198
     23 C         -2.162345   -6.237517   7.536359 C.ar        1 UNL1     -0.0516
     24 O         -2.272282   -9.881655   7.142766 O.3        1 UNL1     -0.5068
     25 O         -1.282214   -3.700662   9.893923 O.2        1 UNL1     -0.2917
     26 O         0.579831   -2.556248   8.315432 O.3        1 UNL1     -0.5058
     27 O         -2.165814   -0.136496   1.356669 O.3        1 UNL1     -0.3648
     28 O         0.836943   1.746469   0.678379 O.3        1 UNL1     -0.3841
     29 O         1.078634   -1.752902   1.417861 O.3        1 UNL1     -0.3863
     30 O         1.817057   1.170405   3.51765 O.3        1 UNL1     -0.3829
     31 H         -1.475202   1.734408   1.384317 H        1 UNL1     0.0937
     32 H         0.0   -0.0   0.0 H        1 UNL1     0.0671
     33 H         2.230165   -0.092494   1.390329 H        1 UNL1     0.0649
     34 H         1.777284   -0.865495   3.773512 H        1 UNL1     0.0683
     35 H         -0.113103   0.275236   4.840949 H        1 UNL1     0.1085
     36 H         0.888879   -1.547612   5.992836 H        1 UNL1     0.0691
     37 H         -3.076684   -2.486875   4.570765 H        1 UNL1     0.0691
     38 H         -4.032874   -2.924505   9.331731 H        1 UNL1     0.0385
     39 H         -3.659104   -4.527349   9.994852 H        1 UNL1     0.0385
     40 H         -5.131877   -4.605179   7.94687 H        1 UNL1     0.0789
     41 H         -5.521323   -6.792425   7.472314 H        1 UNL1     0.0623
     42 H         -4.737456   -9.108431   7.18275 H        1 UNL1     0.0654
     43 H         -0.661982   -7.763689   7.360429 H        1 UNL1     0.0654
     44 H         -1.404743   -5.463338   7.61073 H        1 UNL1     0.0623
     45 H         -1.825697   -9.984781   6.28682 H        1 UNL1     0.2921
     46 H         0.725186   -3.468005   8.613731 H        1 UNL1     0.2922
     47 H         -2.966514   0.066287   1.860274 H        1 UNL1     0.2126
     48 H         0.176562   2.286059   0.202488 H        1 UNL1     0.2101
     49 H         0.210924   -2.070497   1.714522 H        1 UNL1     0.2100
     50 H         1.187913   1.70974   4.040154 H        1 UNL1     0.2102
@<TRIPOS>BOND
     1     1     2    1
     2     1     6    1
     3     2     3    1
     4     3     4    1
     5     3    29    1
     6     3    33    1
     7     4     5    1
     8     5     6    1
     9     5     7    1
    10     5    35    1
    11     7     8    1
    12     8     9   ar
    13     8    13   ar
    14     9    10   ar
    15     9    36    1
    16    10    11   ar
    17    10    26    1
    18    11    12   ar
    19    11    14    1
    20    12    13   ar
    21    12    17    1
    22    13    37    1
    23    14    15    1
    24    14    25    2
    25    15    16    1
    26    15    38    1
    27    15    39    1
    28    16    17    1
    29    16    18    1
    30    16    40    1
    31    18    19   ar
    32    18    23   ar
    33    19    20   ar
    34    19    41    1
    35    20    21   ar
    36    20    42    1
    37    21    22   ar
    38    21    24    1
    39    22    23   ar
    40    22    43    1
    41    23    44    1
    42    24    45    1
    43    26    46    1
    44    27    47    1
    45    28    48    1
    46    29    49    1
    47    30    50    1
    48     1    31    1
    49     1    27    1
    50     2    32    1
    51     2    28    1
    52     4    34    1
    53     4    30    1
