@<TRIPOS>MOLECULE
*****
 50 53 0 0 0
SMALL
GASTEIGER

@<TRIPOS>ATOM
     1 C         0.983816   1.948231   -0.085484 C.3        1 UNL1     0.1889
     2 C         0.826492   0.519394   0.500703 C.3        1 UNL1     0.1342
     3 C         0.601986   0.470634   2.019809 C.3        1 UNL1     0.1174
     4 C         1.360349   1.570212   2.767427 C.3        1 UNL1     0.1456
     5 C         1.200543   2.951487   2.106438 C.3        1 UNL1     0.2326
     6 O         1.634958   2.894255   0.749649 O.3        1 UNL1     -0.3076
     7 O         -0.117829   3.509175   2.255432 O.3        1 UNL1     -0.4605
     8 C         -1.157168   2.598768   2.322235 C.ar        1 UNL1     0.1310
     9 C         -1.780052   2.164833   3.497401 C.ar        1 UNL1     0.0226
     10 C         -2.839167   1.250082   3.459861 C.ar        1 UNL1     0.1343
     11 C         -3.31722   0.764781   2.243395 C.ar        1 UNL1     0.1007
     12 C         -2.676526   1.159224   1.065809 C.ar        1 UNL1     0.1389
     13 C         -1.609893   2.076975   1.104002 C.ar        1 UNL1     0.0229
     14 C         -4.486982   -0.138095   2.140317 C.2        1 UNL1     0.1740
     15 C         -4.999392   -0.380818   0.751047 C.3        1 UNL1     0.0520
     16 C         -3.806529   -0.533606   -0.182597 C.3        1 UNL1     0.1322
     17 O         -2.994203   0.661031   -0.176428 O.3        1 UNL1     -0.4828
     18 C         -3.024915   -1.833279   0.023934 C.ar        1 UNL1     -0.0067
     19 C         -1.619319   -1.787343   0.125927 C.ar        1 UNL1     -0.0516
     20 C         -0.87063   -2.961803   0.267603 C.ar        1 UNL1     -0.0198
     21 C         -1.513711   -4.1862   0.301149 C.ar        1 UNL1     0.1169
     22 C         -2.899003   -4.261371   0.23669 C.ar        1 UNL1     -0.0198
     23 C         -3.649187   -3.085735   0.113567 C.ar        1 UNL1     -0.0516
     24 O         -0.748957   -5.311092   0.401999 O.3        1 UNL1     -0.5068
     25 O         -5.067973   -0.605994   3.116025 O.2        1 UNL1     -0.2917
     26 O         -3.402669   0.866283   4.641702 O.3        1 UNL1     -0.5058
     27 O         -0.216867   2.470621   -0.631612 O.3        1 UNL1     -0.3648
     28 O         2.027839   -0.223122   0.221164 O.3        1 UNL1     -0.3841
     29 O         -0.793805   0.454779   2.325832 O.3        1 UNL1     -0.3863
     30 O         2.764386   1.234362   2.807121 O.3        1 UNL1     -0.3829
     31 H         1.655953   1.861019   -0.946126 H        1 UNL1     0.0937
     32 H         0.0   0.0   0.0 H        1 UNL1     0.0671
     33 H         0.991842   -0.489475   2.385764 H        1 UNL1     0.0649
     34 H         1.014114   1.623811   3.805525 H        1 UNL1     0.0683
     35 H         1.916067   3.586316   2.643929 H        1 UNL1     0.1085
     36 H         -1.491768   2.547474   4.470334 H        1 UNL1     0.0691
     37 H         -1.127256   2.367271   0.173259 H        1 UNL1     0.0691
     38 H         -5.613603   0.481094   0.469302 H        1 UNL1     0.0385
     39 H         -5.638952   -1.270046   0.754622 H        1 UNL1     0.0385
     40 H         -4.201686   -0.591632   -1.205829 H        1 UNL1     0.0789
     41 H         -1.090245   -0.83937   0.093071 H        1 UNL1     0.0623
     42 H         0.21354   -2.914129   0.333281 H        1 UNL1     0.0654
     43 H         -3.413762   -5.213892   0.277154 H        1 UNL1     0.0654
     44 H         -4.730119   -3.18093   0.076584 H        1 UNL1     0.0623
     45 H         0.153984   -5.094543   0.118235 H        1 UNL1     0.2921
     46 H         -3.587268   1.650804   5.181945 H        1 UNL1     0.2922
     47 H         -0.724781   2.928134   0.052906 H        1 UNL1     0.2126
     48 H         2.247008   -0.717066   1.034625 H        1 UNL1     0.2101
     49 H         -0.921305   0.319688   3.278349 H        1 UNL1     0.2100
     50 H         3.223407   1.777142   2.133027 H        1 UNL1     0.2102
@<TRIPOS>BOND
     1     1     2    1
     2     1     6    1
     3     2     3    1
     4     3     4    1
     5     3    29    1
     6     3    33    1
     7     4     5    1
     8     5     6    1
     9     5     7    1
    10     5    35    1
    11     7     8    1
    12     8     9   ar
    13     8    13   ar
    14     9    10   ar
    15     9    36    1
    16    10    11   ar
    17    10    26    1
    18    11    12   ar
    19    11    14    1
    20    12    13   ar
    21    12    17    1
    22    13    37    1
    23    14    15    1
    24    14    25    2
    25    15    16    1
    26    15    38    1
    27    15    39    1
    28    16    17    1
    29    16    18    1
    30    16    40    1
    31    18    19   ar
    32    18    23   ar
    33    19    20   ar
    34    19    41    1
    35    20    21   ar
    36    20    42    1
    37    21    22   ar
    38    21    24    1
    39    22    23   ar
    40    22    43    1
    41    23    44    1
    42    24    45    1
    43    26    46    1
    44    27    47    1
    45    28    48    1
    46    29    49    1
    47    30    50    1
    48     1    31    1
    49     1    27    1
    50     2    32    1
    51     2    28    1
    52     4    34    1
    53     4    30    1
