@<TRIPOS>MOLECULE
*****
 50 53 0 0 0
SMALL
GASTEIGER

@<TRIPOS>ATOM
     1 C         -0.967958   -1.331704   1.435418 C.3        1 UNL1     0.1889
     2 C         0.083015   -1.042974   0.329963 C.3        1 UNL1     0.1342
     3 C         -0.005839   -1.964937   -0.895824 C.3        1 UNL1     0.1174
     4 C         -0.426611   -3.391994   -0.535856 C.3        1 UNL1     0.1456
     5 C         -1.630255   -3.428208   0.423462 C.3        1 UNL1     0.2326
     6 O         -1.329888   -2.693898   1.60813 O.3        1 UNL1     -0.3076
     7 O         -2.867001   -3.026246   -0.193147 O.3        1 UNL1     -0.4605
     8 C         -4.018241   -3.573279   0.344374 C.ar        1 UNL1     0.1310
     9 C         -5.045282   -4.179615   -0.386958 C.ar        1 UNL1     0.0226
     10 C         -6.166851   -4.721016   0.252472 C.ar        1 UNL1     0.1343
     11 C         -6.277436   -4.690359   1.641958 C.ar        1 UNL1     0.1007
     12 C         -5.277832   -4.051119   2.380164 C.ar        1 UNL1     0.1389
     13 C         -4.151471   -3.504478   1.736794 C.ar        1 UNL1     0.0229
     14 C         -7.399709   -5.321145   2.374601 C.2        1 UNL1     0.1740
     15 C         -7.245642   -5.388078   3.865686 C.3        1 UNL1     0.0520
     16 C         -6.632832   -4.079727   4.345935 C.3        1 UNL1     0.1322
     17 O         -5.337522   -3.868119   3.742227 O.3        1 UNL1     -0.4828
     18 C         -7.581456   -2.882526   4.248227 C.ar        1 UNL1     -0.0067
     19 C         -7.435839   -1.968569   3.184417 C.ar        1 UNL1     -0.0516
     20 C         -8.255806   -0.837631   3.091707 C.ar        1 UNL1     -0.0198
     21 C         -9.218031   -0.606043   4.058307 C.ar        1 UNL1     0.1169
     22 C         -9.4078   -1.505362   5.099485 C.ar        1 UNL1     -0.0198
     23 C         -8.600282   -2.646027   5.182281 C.ar        1 UNL1     -0.0516
     24 O         -9.972551   0.52558   3.95569 O.3        1 UNL1     -0.5068
     25 O         -8.366284   -5.835488   1.818123 O.2        1 UNL1     -0.2917
     26 O         -7.133749   -5.297441   -0.518519 O.3        1 UNL1     -0.5058
     27 O         -2.108992   -0.491631   1.363959 O.3        1 UNL1     -0.3648
     28 O         1.396738   -1.207538   0.895433 O.3        1 UNL1     -0.3841
     29 O         -0.829639   -1.38388   -1.90867 O.3        1 UNL1     -0.3863
     30 O         0.684997   -4.070426   0.088442 O.3        1 UNL1     -0.3829
     31 H         -0.498653   -1.068489   2.389645 H        1 UNL1     0.0937
     32 H         0.0   0.0   -0.0 H        1 UNL1     0.0671
     33 H         0.997721   -2.031663   -1.338695 H        1 UNL1     0.0649
     34 H         -0.672591   -3.950189   -1.445973 H        1 UNL1     0.0683
     35 H         -1.706007   -4.48379   0.713094 H        1 UNL1     0.1085
     36 H         -4.992213   -4.284889   -1.465022 H        1 UNL1     0.0691
     37 H         -3.387699   -3.011151   2.3341 H        1 UNL1     0.0691
     38 H         -6.592426   -6.237197   4.093352 H        1 UNL1     0.0385
     39 H         -8.224289   -5.578082   4.319479 H        1 UNL1     0.0385
     40 H         -6.420702   -4.195706   5.417415 H        1 UNL1     0.0789
     41 H         -6.681886   -2.123073   2.41804 H        1 UNL1     0.0623
     42 H         -8.125797   -0.134026   2.27314 H        1 UNL1     0.0654
     43 H         -10.168396   -1.341535   5.853517 H        1 UNL1     0.0654
     44 H         -8.783216   -3.332727   6.003149 H        1 UNL1     0.0623
     45 H         -9.413572   1.28801   4.176958 H        1 UNL1     0.2921
     46 H         -7.929411   -4.742257   -0.508277 H        1 UNL1     0.2922
     47 H         -2.579343   -0.493143   2.209315 H        1 UNL1     0.2126
     48 H         1.756653   -2.038398   0.529558 H        1 UNL1     0.2101
     49 H         -0.436575   -1.538103   -2.782461 H        1 UNL1     0.2100
     50 H         0.875952   -3.618891   0.936597 H        1 UNL1     0.2102
@<TRIPOS>BOND
     1     1     2    1
     2     1     6    1
     3     2     3    1
     4     3     4    1
     5     3    29    1
     6     3    33    1
     7     4     5    1
     8     5     6    1
     9     5     7    1
    10     5    35    1
    11     7     8    1
    12     8     9   ar
    13     8    13   ar
    14     9    10   ar
    15     9    36    1
    16    10    11   ar
    17    10    26    1
    18    11    12   ar
    19    11    14    1
    20    12    13   ar
    21    12    17    1
    22    13    37    1
    23    14    15    1
    24    14    25    2
    25    15    16    1
    26    15    38    1
    27    15    39    1
    28    16    17    1
    29    16    18    1
    30    16    40    1
    31    18    19   ar
    32    18    23   ar
    33    19    20   ar
    34    19    41    1
    35    20    21   ar
    36    20    42    1
    37    21    22   ar
    38    21    24    1
    39    22    23   ar
    40    22    43    1
    41    23    44    1
    42    24    45    1
    43    26    46    1
    44    27    47    1
    45    28    48    1
    46    29    49    1
    47    30    50    1
    48     1    31    1
    49     1    27    1
    50     2    32    1
    51     2    28    1
    52     4    34    1
    53     4    30    1
