@<TRIPOS>MOLECULE
*****
 50 53 0 0 0
SMALL
GASTEIGER

@<TRIPOS>ATOM
     1 C         -0.335155   -1.330435   1.699535 C.3        1 UNL1     0.1889
     2 C         -0.463997   -0.97503   0.19387 C.3        1 UNL1     0.1342
     3 C         -1.904415   -0.959613   -0.340382 C.3        1 UNL1     0.1174
     4 C         -2.792724   -2.018606   0.317309 C.3        1 UNL1     0.1456
     5 C         -2.642287   -2.046489   1.849287 C.3        1 UNL1     0.2326
     6 O         -1.277966   -2.267054   2.199783 O.3        1 UNL1     -0.3076
     7 O         -3.216055   -0.89961   2.502571 O.3        1 UNL1     -0.4605
     8 C         -3.727258   -1.116323   3.76955 C.ar        1 UNL1     0.1310
     9 C         -4.545549   -2.188678   4.140703 C.ar        1 UNL1     0.0226
     10 C         -4.999931   -2.330487   5.457263 C.ar        1 UNL1     0.1343
     11 C         -4.627148   -1.41546   6.440929 C.ar        1 UNL1     0.1007
     12 C         -3.844017   -0.317959   6.07353 C.ar        1 UNL1     0.1389
     13 C         -3.389442   -0.174156   4.749101 C.ar        1 UNL1     0.0229
     14 C         -5.009334   -1.562995   7.864418 C.2        1 UNL1     0.1740
     15 C         -4.339856   -0.61727   8.817809 C.3        1 UNL1     0.0520
     16 C         -4.267919   0.75565   8.16369 C.3        1 UNL1     0.1322
     17 O         -3.5083   0.69963   6.936127 O.3        1 UNL1     -0.4828
     18 C         -5.62602   1.45029   8.038145 C.ar        1 UNL1     -0.0067
     19 C         -6.001962   2.018094   6.803448 C.ar        1 UNL1     -0.0516
     20 C         -7.21608   2.701694   6.667168 C.ar        1 UNL1     -0.0198
     21 C         -8.057741   2.830435   7.757516 C.ar        1 UNL1     0.1169
     22 C         -7.730568   2.253359   8.977671 C.ar        1 UNL1     -0.0198
     23 C         -6.525005   1.553836   9.109359 C.ar        1 UNL1     -0.0516
     24 O         -9.214212   3.535523   7.596804 O.3        1 UNL1     -0.5068
     25 O         -5.75981   -2.444229   8.275146 O.2        1 UNL1     -0.2917
     26 O         -5.796104   -3.398091   5.753766 O.3        1 UNL1     -0.5058
     27 O         -0.22883   -0.193643   2.541667 O.3        1 UNL1     -0.3648
     28 O         0.265685   -1.953356   -0.569771 O.3        1 UNL1     -0.3841
     29 O         -2.460013   0.354692   -0.262634 O.3        1 UNL1     -0.3863
     30 O         -2.446668   -3.319108   -0.206741 O.3        1 UNL1     -0.3829
     31 H         0.62468   -1.844869   1.818505 H        1 UNL1     0.0937
     32 H         0.0   0.0   0.0 H        1 UNL1     0.0671
     33 H         -1.866953   -1.197584   -1.412616 H        1 UNL1     0.0649
     34 H         -3.842397   -1.838361   0.060211 H        1 UNL1     0.0683
     35 H         -3.198524   -2.942015   2.153445 H        1 UNL1     0.1085
     36 H         -4.824518   -2.963833   3.435415 H        1 UNL1     0.0691
     37 H         -2.781874   0.689791   4.488427 H        1 UNL1     0.0691
     38 H         -3.338281   -1.009233   9.024543 H        1 UNL1     0.0385
     39 H         -4.900839   -0.598885   9.758414 H        1 UNL1     0.0385
     40 H         -3.672628   1.398885   8.825806 H        1 UNL1     0.0789
     41 H         -5.354605   1.938678   5.934959 H        1 UNL1     0.0623
     42 H         -7.489253   3.145399   5.712959 H        1 UNL1     0.0654
     43 H         -8.389301   2.335212   9.83399 H        1 UNL1     0.0654
     44 H         -6.30629   1.106683   10.074275 H        1 UNL1     0.0623
     45 H         -8.986499   4.443717   7.339805 H        1 UNL1     0.2921
     46 H         -5.393645   -3.912388   6.471357 H        1 UNL1     0.2922
     47 H         0.515152   0.359444   2.265179 H        1 UNL1     0.2126
     48 H         1.19849   -1.889302   -0.287806 H        1 UNL1     0.2101
     49 H         -2.019953   0.937353   -0.901889 H        1 UNL1     0.2100
     50 H         -2.67924   -3.332377   -1.158291 H        1 UNL1     0.2102
@<TRIPOS>BOND
     1     1     2    1
     2     1     6    1
     3     2     3    1
     4     3     4    1
     5     3    29    1
     6     3    33    1
     7     4     5    1
     8     5     6    1
     9     5     7    1
    10     5    35    1
    11     7     8    1
    12     8     9   ar
    13     8    13   ar
    14     9    10   ar
    15     9    36    1
    16    10    11   ar
    17    10    26    1
    18    11    12   ar
    19    11    14    1
    20    12    13   ar
    21    12    17    1
    22    13    37    1
    23    14    15    1
    24    14    25    2
    25    15    16    1
    26    15    38    1
    27    15    39    1
    28    16    17    1
    29    16    18    1
    30    16    40    1
    31    18    19   ar
    32    18    23   ar
    33    19    20   ar
    34    19    41    1
    35    20    21   ar
    36    20    42    1
    37    21    22   ar
    38    21    24    1
    39    22    23   ar
    40    22    43    1
    41    23    44    1
    42    24    45    1
    43    26    46    1
    44    27    47    1
    45    28    48    1
    46    29    49    1
    47    30    50    1
    48     1    31    1
    49     1    27    1
    50     2    32    1
    51     2    28    1
    52     4    34    1
    53     4    30    1
