@<TRIPOS>MOLECULE
*****
 50 53 0 0 0
SMALL
GASTEIGER

@<TRIPOS>ATOM
     1 C         0.004545   -1.099339   1.887389 C.3        1 UNL1     0.1889
     2 C         -0.260052   -1.002893   0.36075 C.3        1 UNL1     0.1342
     3 C         -1.700415   -1.329744   -0.062322 C.3        1 UNL1     0.1174
     4 C         -2.3388   -2.42188   0.799548 C.3        1 UNL1     0.1456
     5 C         -2.11422   -2.192152   2.305255 C.3        1 UNL1     0.2326
     6 O         -0.71798   -2.106035   2.580871 O.3        1 UNL1     -0.3076
     7 O         -2.864824   -1.083965   2.834249 O.3        1 UNL1     -0.4605
     8 C         -3.265032   -1.1975   4.153519 C.ar        1 UNL1     0.1310
     9 C         -3.845304   -2.332785   4.729463 C.ar        1 UNL1     0.0226
     10 C         -4.201754   -2.355755   6.083095 C.ar        1 UNL1     0.1343
     11 C         -3.964466   -1.251169   6.900055 C.ar        1 UNL1     0.1007
     12 C         -3.423289   -0.097278   6.326952 C.ar        1 UNL1     0.1389
     13 C         -3.067403   -0.073515   4.965258 C.ar        1 UNL1     0.0229
     14 C         -4.243997   -1.250534   8.354708 C.2        1 UNL1     0.1740
     15 C         -3.723083   -0.066694   9.115446 C.3        1 UNL1     0.0520
     16 C         -3.945284   1.182493   8.273951 C.3        1 UNL1     0.1322
     17 O         -3.247616   1.082077   7.012901 O.3        1 UNL1     -0.4828
     18 C         -5.41534   1.59171   8.154792 C.ar        1 UNL1     -0.0067
     19 C         -5.951169   1.887218   6.884447 C.ar        1 UNL1     -0.0516
     20 C         -7.278458   2.310215   6.745386 C.ar        1 UNL1     -0.0198
     21 C         -8.076192   2.44842   7.867147 C.ar        1 UNL1     0.1169
     22 C         -7.587107   2.132838   9.128116 C.ar        1 UNL1     -0.0198
     23 C         -6.265388   1.69212   9.265527 C.ar        1 UNL1     -0.0516
     24 O         -9.352223   2.89904   7.6966 O.3        1 UNL1     -0.5068
     25 O         -4.792373   -2.181815   8.938218 O.2        1 UNL1     -0.2917
     26 O         -4.764761   -3.493599   6.583014 O.3        1 UNL1     -0.5058
     27 O         -0.068426   0.150944   2.553912 O.3        1 UNL1     -0.3648
     28 O         0.606139   -1.935462   -0.312105 O.3        1 UNL1     -0.3841
     29 O         -2.49207   -0.14175   -0.126244 O.3        1 UNL1     -0.3863
     30 O         -1.776145   -3.701398   0.43631 O.3        1 UNL1     -0.3829
     31 H         1.049333   -1.407024   2.004971 H        1 UNL1     0.0937
     32 H         0.0   0.0   0.0 H        1 UNL1     0.0671
     33 H         -1.668546   -1.714827   -1.091115 H        1 UNL1     0.0649
     34 H         -3.414453   -2.476002   0.598446 H        1 UNL1     0.0683
     35 H         -2.474707   -3.118023   2.770757 H        1 UNL1     0.1085
     36 H         -4.004176   -3.242623   4.161066 H        1 UNL1     0.0691
     37 H         -2.648781   0.837482   4.542962 H        1 UNL1     0.0691
     38 H         -2.65652   -0.234433   9.299385 H        1 UNL1     0.0385
     39 H         -4.232326   -0.009768   10.083541 H        1 UNL1     0.0385
     40 H         -3.453123   2.015186   8.794452 H        1 UNL1     0.0789
     41 H         -5.342761   1.795422   5.989425 H        1 UNL1     0.0623
     42 H         -7.676467   2.546495   5.761631 H        1 UNL1     0.0654
     43 H         -8.207714   2.223085   10.011639 H        1 UNL1     0.0654
     44 H         -5.919607   1.444233   10.264443 H        1 UNL1     0.0623
     45 H         -9.314405   3.783616   7.298086 H        1 UNL1     0.2921
     46 H         -4.238229   -3.812561   7.332973 H        1 UNL1     0.2922
     47 H         0.542843   0.782227   2.149323 H        1 UNL1     0.2126
     48 H         1.521797   -1.661851   -0.111009 H        1 UNL1     0.2101
     49 H         -2.201451   0.408827   -0.870689 H        1 UNL1     0.2100
     50 H         -2.046232   -3.899103   -0.484385 H        1 UNL1     0.2102
@<TRIPOS>BOND
     1     1     2    1
     2     1     6    1
     3     2     3    1
     4     3     4    1
     5     3    29    1
     6     3    33    1
     7     4     5    1
     8     5     6    1
     9     5     7    1
    10     5    35    1
    11     7     8    1
    12     8     9   ar
    13     8    13   ar
    14     9    10   ar
    15     9    36    1
    16    10    11   ar
    17    10    26    1
    18    11    12   ar
    19    11    14    1
    20    12    13   ar
    21    12    17    1
    22    13    37    1
    23    14    15    1
    24    14    25    2
    25    15    16    1
    26    15    38    1
    27    15    39    1
    28    16    17    1
    29    16    18    1
    30    16    40    1
    31    18    19   ar
    32    18    23   ar
    33    19    20   ar
    34    19    41    1
    35    20    21   ar
    36    20    42    1
    37    21    22   ar
    38    21    24    1
    39    22    23   ar
    40    22    43    1
    41    23    44    1
    42    24    45    1
    43    26    46    1
    44    27    47    1
    45    28    48    1
    46    29    49    1
    47    30    50    1
    48     1    31    1
    49     1    27    1
    50     2    32    1
    51     2    28    1
    52     4    34    1
    53     4    30    1
