@<TRIPOS>MOLECULE
*****
 50 53 0 0 0
SMALL
GASTEIGER

@<TRIPOS>ATOM
     1 C         -0.95478   1.964064   -0.040659 C.3        1 UNL1     0.1889
     2 C         -0.223395   0.783606   -0.734587 C.3        1 UNL1     0.1342
     3 C         1.072392   1.171495   -1.463246 C.3        1 UNL1     0.1174
     4 C         1.002473   2.562398   -2.098554 C.3        1 UNL1     0.1456
     5 C         0.425219   3.620472   -1.140628 C.3        1 UNL1     0.2326
     6 O         -0.869459   3.220156   -0.697429 O.3        1 UNL1     -0.3076
     7 O         1.313023   3.960747   -0.060194 O.3        1 UNL1     -0.4605
     8 C         0.885381   4.973139   0.779872 C.ar        1 UNL1     0.1310
     9 C         0.899727   6.338674   0.475882 C.ar        1 UNL1     0.0226
     10 C         0.427878   7.288546   1.389667 C.ar        1 UNL1     0.1343
     11 C         -0.092337   6.893624   2.621436 C.ar        1 UNL1     0.1007
     12 C         -0.074045   5.536194   2.952846 C.ar        1 UNL1     0.1389
     13 C         0.402891   4.581527   2.034927 C.ar        1 UNL1     0.0229
     14 C         -0.681059   7.847225   3.590045 C.2        1 UNL1     0.1740
     15 C         -1.392218   7.230049   4.758333 C.3        1 UNL1     0.0520
     16 C         -0.58693   6.028059   5.232345 C.3        1 UNL1     0.1322
     17 O         -0.461201   5.047387   4.178996 O.3        1 UNL1     -0.4828
     18 C         0.732299   6.400052   5.913506 C.ar        1 UNL1     -0.0067
     19 C         0.920726   6.087404   7.275475 C.ar        1 UNL1     -0.0516
     20 C         2.096039   6.455627   7.941068 C.ar        1 UNL1     -0.0198
     21 C         3.085089   7.141748   7.259273 C.ar        1 UNL1     0.1169
     22 C         2.942904   7.43444   5.909105 C.ar        1 UNL1     -0.0198
     23 C         1.77554   7.050079   5.238593 C.ar        1 UNL1     -0.0516
     24 O         4.199634   7.51715   7.950116 O.3        1 UNL1     -0.5068
     25 O         -0.672484   9.064971   3.430337 O.2        1 UNL1     -0.2917
     26 O         0.470515   8.604644   1.032384 O.3        1 UNL1     -0.5058
     27 O         -0.66195   2.075577   1.343032 O.3        1 UNL1     -0.3648
     28 O         -1.109851   0.20982   -1.713194 O.3        1 UNL1     -0.3841
     29 O         2.203984   1.011139   -0.605389 O.3        1 UNL1     -0.3863
     30 O         0.172454   2.502895   -3.2789 O.3        1 UNL1     -0.3829
     31 H         -2.02471   1.730926   -0.07192 H        1 UNL1     0.0937
     32 H         0.0   0.0   0.0 H        1 UNL1     0.0671
     33 H         1.22365   0.455046   -2.282722 H        1 UNL1     0.0649
     34 H         2.000681   2.875466   -2.424084 H        1 UNL1     0.0683
     35 H         0.285794   4.504277   -1.775709 H        1 UNL1     0.1085
     36 H         1.239545   6.705036   -0.486627 H        1 UNL1     0.0691
     37 H         0.407445   3.531   2.317531 H        1 UNL1     0.0691
     38 H         -2.388578   6.928541   4.41791 H        1 UNL1     0.0385
     39 H         -1.51273   7.983621   5.544071 H        1 UNL1     0.0385
     40 H         -1.181856   5.524746   6.006462 H        1 UNL1     0.0789
     41 H         0.155513   5.557534   7.835241 H        1 UNL1     0.0623
     42 H         2.224433   6.219291   8.994478 H        1 UNL1     0.0654
     43 H         3.717593   7.958094   5.36179 H        1 UNL1     0.0654
     44 H         1.70261   7.285715   4.181237 H        1 UNL1     0.0623
     45 H         4.973995   7.380682   7.380503 H        1 UNL1     0.2921
     46 H         0.869783   9.121826   1.749684 H        1 UNL1     0.2922
     47 H         -0.751038   2.994784   1.631097 H        1 UNL1     0.2126
     48 H         -1.442992   -0.625752   -1.332971 H        1 UNL1     0.2101
     49 H         2.191792   1.690577   0.087438 H        1 UNL1     0.2100
     50 H         0.345631   1.648874   -3.726528 H        1 UNL1     0.2102
@<TRIPOS>BOND
     1     1     2    1
     2     1     6    1
     3     2     3    1
     4     3     4    1
     5     3    29    1
     6     3    33    1
     7     4     5    1
     8     5     6    1
     9     5     7    1
    10     5    35    1
    11     7     8    1
    12     8     9   ar
    13     8    13   ar
    14     9    10   ar
    15     9    36    1
    16    10    11   ar
    17    10    26    1
    18    11    12   ar
    19    11    14    1
    20    12    13   ar
    21    12    17    1
    22    13    37    1
    23    14    15    1
    24    14    25    2
    25    15    16    1
    26    15    38    1
    27    15    39    1
    28    16    17    1
    29    16    18    1
    30    16    40    1
    31    18    19   ar
    32    18    23   ar
    33    19    20   ar
    34    19    41    1
    35    20    21   ar
    36    20    42    1
    37    21    22   ar
    38    21    24    1
    39    22    23   ar
    40    22    43    1
    41    23    44    1
    42    24    45    1
    43    26    46    1
    44    27    47    1
    45    28    48    1
    46    29    49    1
    47    30    50    1
    48     1    31    1
    49     1    27    1
    50     2    32    1
    51     2    28    1
    52     4    34    1
    53     4    30    1
