@<TRIPOS>MOLECULE
*****
 50 53 0 0 0
SMALL
GASTEIGER

@<TRIPOS>ATOM
     1 C         -0.331684   -1.327838   1.702245 C.3        1 UNL1     0.1889
     2 C         -0.462373   -0.975365   0.19605 C.3        1 UNL1     0.1342
     3 C         -1.903279   -0.963066   -0.336965 C.3        1 UNL1     0.1174
     4 C         -2.789433   -2.022182   0.32343 C.3        1 UNL1     0.1456
     5 C         -2.637614   -2.047053   1.855323 C.3        1 UNL1     0.2326
     6 O         -1.272659   -2.264948   2.205022 O.3        1 UNL1     -0.3076
     7 O         -3.212519   -0.899843   2.507025 O.3        1 UNL1     -0.4605
     8 C         -3.721865   -1.114906   3.775032 C.ar        1 UNL1     0.1310
     9 C         -4.537931   -2.187885   4.149267 C.ar        1 UNL1     0.0226
     10 C         -4.990522   -2.327851   5.46664 C.ar        1 UNL1     0.1343
     11 C         -4.618102   -1.410267   6.448059 C.ar        1 UNL1     0.1007
     12 C         -3.837233   -0.312192   6.077571 C.ar        1 UNL1     0.1389
     13 C         -3.384462   -0.170247   4.752323 C.ar        1 UNL1     0.0229
     14 C         -4.998361   -1.555628   7.872287 C.2        1 UNL1     0.1740
     15 C         -4.329334   -0.606913   8.823019 C.3        1 UNL1     0.0520
     16 C         -4.260455   0.764832   8.166111 C.3        1 UNL1     0.1322
     17 O         -3.502194   0.707653   6.937762 O.3        1 UNL1     -0.4828
     18 C         -5.619858   1.456964   8.040805 C.ar        1 UNL1     -0.0067
     19 C         -5.999382   2.019251   6.804679 C.ar        1 UNL1     -0.0516
     20 C         -7.214809   2.700512   6.668361 C.ar        1 UNL1     -0.0198
     21 C         -8.054236   2.832393   7.760056 C.ar        1 UNL1     0.1169
     22 C         -7.723499   2.260704   8.981786 C.ar        1 UNL1     -0.0198
     23 C         -6.516613   1.563489   9.113594 C.ar        1 UNL1     -0.0516
     24 O         -9.212102   3.535128   7.599092 O.3        1 UNL1     -0.5068
     25 O         -5.746883   -2.437297   8.285639 O.2        1 UNL1     -0.2917
     26 O         -5.784566   -3.396191   5.766189 O.3        1 UNL1     -0.5058
     27 O         -0.226317   -0.189358   2.542215 O.3        1 UNL1     -0.3648
     28 O         0.268098   -1.953991   -0.566451 O.3        1 UNL1     -0.3841
     29 O         -2.460767   0.35055   -0.261119 O.3        1 UNL1     -0.3863
     30 O         -2.441898   -3.323119   -0.198558 O.3        1 UNL1     -0.3829
     31 H         0.62902   -1.840624   1.821307 H        1 UNL1     0.0937
     32 H         0.0   0.0   0.0 H        1 UNL1     0.0671
     33 H         -1.866401   -1.202931   -1.408797 H        1 UNL1     0.0649
     34 H         -3.839598   -1.843968   0.066926 H        1 UNL1     0.0683
     35 H         -3.192249   -2.942852   2.161597 H        1 UNL1     0.1085
     36 H         -4.816441   -2.964893   3.445839 H        1 UNL1     0.0691
     37 H         -2.778642   0.694193   4.489228 H        1 UNL1     0.0691
     38 H         -3.326864   -0.996801   9.02934 H        1 UNL1     0.0385
     39 H         -4.889237   -0.587605   9.76425 H        1 UNL1     0.0385
     40 H         -3.665454   1.410361   8.826253 H        1 UNL1     0.0789
     41 H         -5.353838   1.9373   5.935077 H        1 UNL1     0.0623
     42 H         -7.490757   3.139979   5.71299 H        1 UNL1     0.0654
     43 H         -8.380449   2.345027   9.839234 H        1 UNL1     0.0654
     44 H         -6.295094   1.120537   10.079808 H        1 UNL1     0.0623
     45 H         -8.986337   4.44233   7.336925 H        1 UNL1     0.2921
     46 H         -5.379757   -3.909129   6.483431 H        1 UNL1     0.2922
     47 H         0.516704   0.364243   2.264175 H        1 UNL1     0.2126
     48 H         1.200933   -1.888525   -0.28491 H        1 UNL1     0.2101
     49 H         -2.021958   0.932767   -0.901637 H        1 UNL1     0.2100
     50 H         -2.675282   -3.338465   -1.149877 H        1 UNL1     0.2102
@<TRIPOS>BOND
     1     1     2    1
     2     1     6    1
     3     2     3    1
     4     3     4    1
     5     3    29    1
     6     3    33    1
     7     4     5    1
     8     5     6    1
     9     5     7    1
    10     5    35    1
    11     7     8    1
    12     8     9   ar
    13     8    13   ar
    14     9    10   ar
    15     9    36    1
    16    10    11   ar
    17    10    26    1
    18    11    12   ar
    19    11    14    1
    20    12    13   ar
    21    12    17    1
    22    13    37    1
    23    14    15    1
    24    14    25    2
    25    15    16    1
    26    15    38    1
    27    15    39    1
    28    16    17    1
    29    16    18    1
    30    16    40    1
    31    18    19   ar
    32    18    23   ar
    33    19    20   ar
    34    19    41    1
    35    20    21   ar
    36    20    42    1
    37    21    22   ar
    38    21    24    1
    39    22    23   ar
    40    22    43    1
    41    23    44    1
    42    24    45    1
    43    26    46    1
    44    27    47    1
    45    28    48    1
    46    29    49    1
    47    30    50    1
    48     1    31    1
    49     1    27    1
    50     2    32    1
    51     2    28    1
    52     4    34    1
    53     4    30    1
