@<TRIPOS>MOLECULE
*****
 50 53 0 0 0
SMALL
GASTEIGER

@<TRIPOS>ATOM
     1 C         -0.088174   -1.037624   1.919991 C.3        1 UNL1     0.1889
     2 C         -0.56184   -0.823966   0.457141 C.3        1 UNL1     0.1342
     3 C         -2.065916   -0.55078   0.303555 C.3        1 UNL1     0.1174
     4 C         -2.914951   -1.314418   1.322924 C.3        1 UNL1     0.1456
     5 C         -2.353914   -1.212287   2.753018 C.3        1 UNL1     0.2326
     6 O         -1.009912   -1.687295   2.782963 O.3        1 UNL1     -0.3076
     7 O         -2.505249   0.09476   3.336153 O.3        1 UNL1     -0.4605
     8 C         -2.676237   0.130253   4.708389 C.ar        1 UNL1     0.1310
     9 C         -3.54099   -0.691957   5.438781 C.ar        1 UNL1     0.0226
     10 C         -3.630985   -0.590972   6.832196 C.ar        1 UNL1     0.1343
     11 C         -2.84009   0.319277   7.532034 C.ar        1 UNL1     0.1007
     12 C         -2.002885   1.173961   6.809963 C.ar        1 UNL1     0.1389
     13 C         -1.914524   1.074036   5.408664 C.ar        1 UNL1     0.0229
     14 C         -2.833408   0.410243   9.010491 C.2        1 UNL1     0.1740
     15 C         -1.765385   1.282238   9.602521 C.3        1 UNL1     0.0520
     16 C         -1.62833   2.529176   8.739782 C.3        1 UNL1     0.1322
     17 O         -1.261785   2.178997   7.386974 O.3        1 UNL1     -0.4828
     18 C         -2.817744   3.486512   8.847134 C.ar        1 UNL1     -0.0067
     19 C         -3.410783   3.988872   7.670633 C.ar        1 UNL1     -0.0516
     20 C         -4.469341   4.902902   7.733603 C.ar        1 UNL1     -0.0198
     21 C         -4.938025   5.327039   8.964161 C.ar        1 UNL1     0.1169
     22 C         -4.396713   4.824804   10.140418 C.ar        1 UNL1     -0.0198
     23 C         -3.3504   3.89671   10.077747 C.ar        1 UNL1     -0.0516
     24 O         -5.945043   6.246734   8.98598 O.3        1 UNL1     -0.5068
     25 O         -3.588379   -0.237196   9.731134 O.2        1 UNL1     -0.2917
     26 O         -4.494675   -1.421304   7.485016 O.3        1 UNL1     -0.5058
     27 O         0.452573   0.131007   2.515541 O.3        1 UNL1     -0.3648
     28 O         -0.263234   -2.013245   -0.297284 O.3        1 UNL1     -0.3841
     29 O         -2.328946   0.853835   0.305649 O.3        1 UNL1     -0.3863
     30 O         -2.970674   -2.707066   0.944616 O.3        1 UNL1     -0.3829
     31 H         0.756531   -1.733817   1.87677 H        1 UNL1     0.0937
     32 H         0.0   0.0   0.0 H        1 UNL1     0.0671
     33 H         -2.370852   -0.903237   -0.691687 H        1 UNL1     0.0649
     34 H         -3.943589   -0.937397   1.310194 H        1 UNL1     0.0683
     35 H         -2.957744   -1.927307   3.325744 H        1 UNL1     0.1085
     36 H         -4.140794   -1.457571   4.958999 H        1 UNL1     0.0691
     37 H         -1.255982   1.751804   4.869733 H        1 UNL1     0.0691
     38 H         -0.83467   0.705015   9.613081 H        1 UNL1     0.0385
     39 H         -2.030845   1.522149   10.637775 H        1 UNL1     0.0385
     40 H         -0.766098   3.093129   9.120612 H        1 UNL1     0.0789
     41 H         -3.054992   3.67851   6.692503 H        1 UNL1     0.0623
     42 H         -4.910383   5.292088   6.819258 H        1 UNL1     0.0654
     43 H         -4.766162   5.138728   11.10937 H        1 UNL1     0.0654
     44 H         -2.958401   3.517211   11.016449 H        1 UNL1     0.0623
     45 H         -6.709033   5.854304   9.438787 H        1 UNL1     0.2921
     46 H         -4.010294   -1.931245   8.153407 H        1 UNL1     0.2922
     47 H         1.176954   0.477299   1.975897 H        1 UNL1     0.2126
     48 H         0.707897   -2.115674   -0.285174 H        1 UNL1     0.2101
     49 H         -1.984548   1.255289   -0.507997 H        1 UNL1     0.2100
     50 H         -3.4609   -2.770356   0.098811 H        1 UNL1     0.2102
@<TRIPOS>BOND
     1     1     2    1
     2     1     6    1
     3     2     3    1
     4     3     4    1
     5     3    29    1
     6     3    33    1
     7     4     5    1
     8     5     6    1
     9     5     7    1
    10     5    35    1
    11     7     8    1
    12     8     9   ar
    13     8    13   ar
    14     9    10   ar
    15     9    36    1
    16    10    11   ar
    17    10    26    1
    18    11    12   ar
    19    11    14    1
    20    12    13   ar
    21    12    17    1
    22    13    37    1
    23    14    15    1
    24    14    25    2
    25    15    16    1
    26    15    38    1
    27    15    39    1
    28    16    17    1
    29    16    18    1
    30    16    40    1
    31    18    19   ar
    32    18    23   ar
    33    19    20   ar
    34    19    41    1
    35    20    21   ar
    36    20    42    1
    37    21    22   ar
    38    21    24    1
    39    22    23   ar
    40    22    43    1
    41    23    44    1
    42    24    45    1
    43    26    46    1
    44    27    47    1
    45    28    48    1
    46    29    49    1
    47    30    50    1
    48     1    31    1
    49     1    27    1
    50     2    32    1
    51     2    28    1
    52     4    34    1
    53     4    30    1
