@<TRIPOS>MOLECULE
*****
 50 53 0 0 0
SMALL
GASTEIGER

@<TRIPOS>ATOM
     1 C         -0.306647   -1.370531   1.672847 C.3        1 UNL1     0.1889
     2 C         -0.454688   -0.982593   0.17701 C.3        1 UNL1     0.1342
     3 C         -1.900986   -0.966142   -0.341079 C.3        1 UNL1     0.1174
     4 C         -2.774218   -2.046233   0.302339 C.3        1 UNL1     0.1456
     5 C         -2.606688   -2.107165   1.831582 C.3        1 UNL1     0.2326
     6 O         -1.237006   -2.325181   2.162203 O.3        1 UNL1     -0.3076
     7 O         -3.181584   -0.979522   2.51659 O.3        1 UNL1     -0.4605
     8 C         -3.687397   -1.230774   3.779346 C.ar        1 UNL1     0.1310
     9 C         -4.495269   -2.318804   4.126957 C.ar        1 UNL1     0.0226
     10 C         -4.944782   -2.495854   5.440919 C.ar        1 UNL1     0.1343
     11 C         -4.577308   -1.60122   6.445126 C.ar        1 UNL1     0.1007
     12 C         -3.804804   -0.48845   6.101956 C.ar        1 UNL1     0.1389
     13 C         -3.355138   -0.309217   4.780174 C.ar        1 UNL1     0.0229
     14 C         -4.954284   -1.785901   7.865667 C.2        1 UNL1     0.1740
     15 C         -4.290479   -0.857249   8.839586 C.3        1 UNL1     0.0520
     16 C         -4.232332   0.53141   8.218133 C.3        1 UNL1     0.1322
     17 O         -3.475624   0.511265   6.987663 O.3        1 UNL1     -0.4828
     18 C         -5.596788   1.216862   8.112592 C.ar        1 UNL1     -0.0067
     19 C         -5.736053   2.360995   7.300325 C.ar        1 UNL1     -0.0516
     20 C         -6.957859   3.03959   7.218707 C.ar        1 UNL1     -0.0198
     21 C         -8.043439   2.58938   7.948537 C.ar        1 UNL1     0.1169
     22 C         -7.946576   1.446177   8.731189 C.ar        1 UNL1     -0.0198
     23 C         -6.729962   0.756709   8.798573 C.ar        1 UNL1     -0.0516
     24 O         -9.206546   3.297863   7.873477 O.3        1 UNL1     -0.5068
     25 O         -5.695904   -2.683216   8.257215 O.2        1 UNL1     -0.2917
     26 O         -5.730783   -3.577167   5.713957 O.3        1 UNL1     -0.5058
     27 O         -0.199352   -0.252048   2.539028 O.3        1 UNL1     -0.3648
     28 O         0.27366   -1.938088   -0.616239 O.3        1 UNL1     -0.3841
     29 O         -2.465288   0.341864   -0.227876 O.3        1 UNL1     -0.3863
     30 O         -2.424464   -3.332062   -0.254442 O.3        1 UNL1     -0.3829
     31 H         0.658178   -1.880224   1.769826 H        1 UNL1     0.0937
     32 H         0.0   0.0   0.0 H        1 UNL1     0.0671
     33 H         -1.873617   -1.179831   -1.418718 H        1 UNL1     0.0649
     34 H         -3.827953   -1.868232   0.060764 H        1 UNL1     0.0683
     35 H         -3.152973   -3.013435   2.121629 H        1 UNL1     0.1085
     36 H         -4.76939   -3.079403   3.404138 H        1 UNL1     0.0691
     37 H         -2.755857   0.565992   4.538588 H        1 UNL1     0.0691
     38 H         -3.284955   -1.245188   9.034397 H        1 UNL1     0.0385
     39 H         -4.849019   -0.86616   9.781781 H        1 UNL1     0.0385
     40 H         -3.640868   1.163939   8.893852 H        1 UNL1     0.0789
     41 H         -4.896419   2.739714   6.724793 H        1 UNL1     0.0623
     42 H         -7.049355   3.927568   6.598114 H        1 UNL1     0.0654
     43 H         -8.794585   1.076227   9.29504 H        1 UNL1     0.0654
     44 H         -6.693058   -0.138661   9.411594 H        1 UNL1     0.0623
     45 H         -9.057357   4.17452   8.263262 H        1 UNL1     0.2921
     46 H         -5.333878   -4.09201   6.434246 H        1 UNL1     0.2922
     47 H         0.524414   0.323422   2.254676 H        1 UNL1     0.2126
     48 H         1.219264   -1.812365   -0.407055 H        1 UNL1     0.2101
     49 H         -2.042597   0.939882   -0.864665 H        1 UNL1     0.2100
     50 H         -2.693259   -3.335899   -1.196486 H        1 UNL1     0.2102
@<TRIPOS>BOND
     1     1     2    1
     2     1     6    1
     3     2     3    1
     4     3     4    1
     5     3    29    1
     6     3    33    1
     7     4     5    1
     8     5     6    1
     9     5     7    1
    10     5    35    1
    11     7     8    1
    12     8     9   ar
    13     8    13   ar
    14     9    10   ar
    15     9    36    1
    16    10    11   ar
    17    10    26    1
    18    11    12   ar
    19    11    14    1
    20    12    13   ar
    21    12    17    1
    22    13    37    1
    23    14    15    1
    24    14    25    2
    25    15    16    1
    26    15    38    1
    27    15    39    1
    28    16    17    1
    29    16    18    1
    30    16    40    1
    31    18    19   ar
    32    18    23   ar
    33    19    20   ar
    34    19    41    1
    35    20    21   ar
    36    20    42    1
    37    21    22   ar
    38    21    24    1
    39    22    23   ar
    40    22    43    1
    41    23    44    1
    42    24    45    1
    43    26    46    1
    44    27    47    1
    45    28    48    1
    46    29    49    1
    47    30    50    1
    48     1    31    1
    49     1    27    1
    50     2    32    1
    51     2    28    1
    52     4    34    1
    53     4    30    1
