@<TRIPOS>MOLECULE
*****
 50 53 0 0 0
SMALL
GASTEIGER

@<TRIPOS>ATOM
     1 C         1.577351   -1.427875   0.493905 C.3        1 UNL1     0.1889
     2 C         0.279699   -1.028736   -0.258908 C.3        1 UNL1     0.1342
     3 C         -0.920169   -1.953661   -0.003377 C.3        1 UNL1     0.1174
     4 C         -0.512431   -3.417517   0.180995 C.3        1 UNL1     0.1456
     5 C         0.681192   -3.581504   1.139504 C.3        1 UNL1     0.2326
     6 O         1.791171   -2.820828   0.668137 O.3        1 UNL1     -0.3076
     7 O         0.353361   -3.311626   2.514645 O.3        1 UNL1     -0.4605
     8 C         -0.853604   -2.673076   2.736044 C.ar        1 UNL1     0.1310
     9 C         -1.77013   -2.998669   3.741662 C.ar        1 UNL1     0.0226
     10 C         -2.961129   -2.279221   3.895993 C.ar        1 UNL1     0.1343
     11 C         -3.253672   -1.200464   3.062601 C.ar        1 UNL1     0.1007
     12 C         -2.365541   -0.891717   2.02883 C.ar        1 UNL1     0.1389
     13 C         -1.169321   -1.616944   1.872198 C.ar        1 UNL1     0.0229
     14 C         -4.456821   -0.353572   3.233945 C.2        1 UNL1     0.1740
     15 C         -4.499502   0.890833   2.396577 C.3        1 UNL1     0.0520
     16 C         -3.966873   0.556963   1.009928 C.3        1 UNL1     0.1322
     17 O         -2.605392   0.079646   1.0848 O.3        1 UNL1     -0.4828
     18 C         -4.9051   -0.328429   0.186195 C.ar        1 UNL1     -0.0067
     19 C         -5.08858   -0.055535   -1.184964 C.ar        1 UNL1     -0.0516
     20 C         -5.975444   -0.816072   -1.956339 C.ar        1 UNL1     -0.0198
     21 C         -6.688617   -1.845161   -1.367964 C.ar        1 UNL1     0.1169
     22 C         -6.504529   -2.159494   -0.027761 C.ar        1 UNL1     -0.0198
     23 C         -5.60397   -1.410934   0.739511 C.ar        1 UNL1     -0.0516
     24 O         -7.571306   -2.539682   -2.141852 O.3        1 UNL1     -0.5068
     25 O         -5.337218   -0.588383   4.057505 O.2        1 UNL1     -0.2917
     26 O         -3.813093   -2.6482   4.895792 O.3        1 UNL1     -0.5058
     27 O         1.771779   -0.712796   1.703717 O.3        1 UNL1     -0.3648
     28 O         0.546744   -1.054367   -1.673382 O.3        1 UNL1     -0.3841
     29 O         -1.719091   -1.461711   1.07451 O.3        1 UNL1     -0.3863
     30 O         -0.156861   -3.975531   -1.102702 O.3        1 UNL1     -0.3829
     31 H         2.414954   -1.117603   -0.140312 H        1 UNL1     0.0937
     32 H         -0.0   0.0   0.0 H        1 UNL1     0.0671
     33 H         -1.569074   -1.913681   -0.889404 H        1 UNL1     0.0649
     34 H         -1.361768   -3.997607   0.558516 H        1 UNL1     0.0683
     35 H         0.955196   -4.639486   1.042165 H        1 UNL1     0.1085
     36 H         -1.57487   -3.790453   4.456556 H        1 UNL1     0.0691
     37 H         -0.495139   -1.35743   1.058796 H        1 UNL1     0.0691
     38 H         -3.874306   1.643128   2.889233 H        1 UNL1     0.0385
     39 H         -5.527567   1.26753   2.365594 H        1 UNL1     0.0385
     40 H         -3.8964   1.501747   0.454107 H        1 UNL1     0.0789
     41 H         -4.547397   0.752708   -1.668198 H        1 UNL1     0.0623
     42 H         -6.1171   -0.588193   -3.009912 H        1 UNL1     0.0654
     43 H         -7.046681   -2.972921   0.439484 H        1 UNL1     0.0654
     44 H         -5.477166   -1.690979   1.780828 H        1 UNL1     0.0623
     45 H         -7.067552   -3.083674   -2.768766 H        1 UNL1     0.2921
     46 H         -4.393745   -3.358638   4.580303 H        1 UNL1     0.2922
     47 H         1.856556   0.233824   1.523209 H        1 UNL1     0.2126
     48 H         1.492175   -1.276759   -1.775535 H        1 UNL1     0.2101
     49 H         -2.026316   -0.563212   0.874241 H        1 UNL1     0.2100
     50 H         -0.432853   -4.915474   -1.109765 H        1 UNL1     0.2102
@<TRIPOS>BOND
     1     1     2    1
     2     1     6    1
     3     2     3    1
     4     3     4    1
     5     3    29    1
     6     3    33    1
     7     4     5    1
     8     5     6    1
     9     5     7    1
    10     5    35    1
    11     7     8    1
    12     8     9   ar
    13     8    13   ar
    14     9    10   ar
    15     9    36    1
    16    10    11   ar
    17    10    26    1
    18    11    12   ar
    19    11    14    1
    20    12    13   ar
    21    12    17    1
    22    13    37    1
    23    14    15    1
    24    14    25    2
    25    15    16    1
    26    15    38    1
    27    15    39    1
    28    16    17    1
    29    16    18    1
    30    16    40    1
    31    18    19   ar
    32    18    23   ar
    33    19    20   ar
    34    19    41    1
    35    20    21   ar
    36    20    42    1
    37    21    22   ar
    38    21    24    1
    39    22    23   ar
    40    22    43    1
    41    23    44    1
    42    24    45    1
    43    26    46    1
    44    27    47    1
    45    28    48    1
    46    29    49    1
    47    30    50    1
    48     1    31    1
    49     1    27    1
    50     2    32    1
    51     2    28    1
    52     4    34    1
    53     4    30    1
