@<TRIPOS>MOLECULE
*****
 50 53 0 0 0
SMALL
GASTEIGER

@<TRIPOS>ATOM
     1 C         -0.409477   -1.361554   1.658102 C.3        1 UNL1     0.1889
     2 C         -0.502576   -0.961808   0.160946 C.3        1 UNL1     0.1342
     3 C         -1.933295   -0.878434   -0.392732 C.3        1 UNL1     0.1174
     4 C         -2.869881   -1.920555   0.223633 C.3        1 UNL1     0.1456
     5 C         -2.743487   -1.994628   1.756246 C.3        1 UNL1     0.2326
     6 O         -1.393644   -2.275222   2.119645 O.3        1 UNL1     -0.3076
     7 O         -3.284155   -0.844828   2.432233 O.3        1 UNL1     -0.4605
     8 C         -3.821897   -1.075789   3.685636 C.ar        1 UNL1     0.1310
     9 C         -4.684734   -2.126281   4.016211 C.ar        1 UNL1     0.0226
     10 C         -5.163671   -2.285853   5.32199 C.ar        1 UNL1     0.1343
     11 C         -4.77205   -1.411782   6.33514 C.ar        1 UNL1     0.1007
     12 C         -3.943473   -0.334956   6.008507 C.ar        1 UNL1     0.1389
     13 C         -3.464151   -0.173189   4.694919 C.ar        1 UNL1     0.0229
     14 C         -5.180659   -1.582605   7.74865 C.2        1 UNL1     0.1740
     15 C         -4.490992   -0.688151   8.736507 C.3        1 UNL1     0.0520
     16 C         -4.358575   0.697975   8.120815 C.3        1 UNL1     0.1322
     17 O         -3.583288   0.646164   6.9029 O.3        1 UNL1     -0.4828
     18 C         -5.688035   1.445953   7.995167 C.ar        1 UNL1     -0.0067
     19 C         -6.024234   2.059927   6.771149 C.ar        1 UNL1     -0.0516
     20 C         -7.210074   2.791782   6.636481 C.ar        1 UNL1     -0.0198
     21 C         -8.062599   2.922939   7.718066 C.ar        1 UNL1     0.1169
     22 C         -7.775255   2.301911   8.926618 C.ar        1 UNL1     -0.0198
     23 C         -6.598484   1.554591   9.056146 C.ar        1 UNL1     -0.0516
     24 O         -9.189677   3.674753   7.560362 O.3        1 UNL1     -0.5068
     25 O         -5.969259   -2.44576   8.124895 O.2        1 UNL1     -0.2917
     26 O         -6.003116   -3.330448   5.578386 O.3        1 UNL1     -0.5058
     27 O         -0.273788   -0.252245   2.532063 O.3        1 UNL1     -0.3648
     28 O         0.201764   -1.946133   -0.618615 O.3        1 UNL1     -0.3841
     29 O         -2.441016   0.453189   -0.287234 O.3        1 UNL1     -0.3863
     30 O         -2.564355   -3.218735   -0.33051 O.3        1 UNL1     -0.3829
     31 H         0.528795   -1.914462   1.776496 H        1 UNL1     0.0937
     32 H         0.0   0.0   0.0 H        1 UNL1     0.0671
     33 H         -1.888639   -1.08914   -1.470381 H        1 UNL1     0.0649
     34 H         -3.908213   -1.694469   -0.043113 H        1 UNL1     0.0683
     35 H         -3.336939   -2.876492   2.028292 H        1 UNL1     0.1085
     36 H         -4.981602   -2.87151   3.286401 H        1 UNL1     0.0691
     37 H         -2.821227   0.674058   4.466199 H        1 UNL1     0.0691
     38 H         -3.507796   -1.122601   8.946518 H        1 UNL1     0.0385
     39 H         -5.064905   -0.673752   9.66935 H        1 UNL1     0.0385
     40 H         -3.749868   1.300747   8.808318 H        1 UNL1     0.0789
     41 H         -5.36735   1.979423   5.909945 H        1 UNL1     0.0623
     42 H         -7.452364   3.270513   5.6909 H        1 UNL1     0.0654
     43 H         -8.443234   2.385597   9.775565 H        1 UNL1     0.0654
     44 H         -6.410895   1.074165   10.011576 H        1 UNL1     0.0623
     45 H         -8.924725   4.580296   7.331214 H        1 UNL1     0.2921
     46 H         -5.630715   -3.878258   6.287353 H        1 UNL1     0.2922
     47 H         0.494184   0.279792   2.281034 H        1 UNL1     0.2126
     48 H         1.131981   -1.92447   -0.322038 H        1 UNL1     0.2101
     49 H         -1.97021   1.035738   -0.904302 H        1 UNL1     0.2100
     50 H         -2.783013   -3.198084   -1.285222 H        1 UNL1     0.2102
@<TRIPOS>BOND
     1     1     2    1
     2     1     6    1
     3     2     3    1
     4     3     4    1
     5     3    29    1
     6     3    33    1
     7     4     5    1
     8     5     6    1
     9     5     7    1
    10     5    35    1
    11     7     8    1
    12     8     9   ar
    13     8    13   ar
    14     9    10   ar
    15     9    36    1
    16    10    11   ar
    17    10    26    1
    18    11    12   ar
    19    11    14    1
    20    12    13   ar
    21    12    17    1
    22    13    37    1
    23    14    15    1
    24    14    25    2
    25    15    16    1
    26    15    38    1
    27    15    39    1
    28    16    17    1
    29    16    18    1
    30    16    40    1
    31    18    19   ar
    32    18    23   ar
    33    19    20   ar
    34    19    41    1
    35    20    21   ar
    36    20    42    1
    37    21    22   ar
    38    21    24    1
    39    22    23   ar
    40    22    43    1
    41    23    44    1
    42    24    45    1
    43    26    46    1
    44    27    47    1
    45    28    48    1
    46    29    49    1
    47    30    50    1
    48     1    31    1
    49     1    27    1
    50     2    32    1
    51     2    28    1
    52     4    34    1
    53     4    30    1
