@<TRIPOS>MOLECULE
*****
 50 53 0 0 0
SMALL
GASTEIGER

@<TRIPOS>ATOM
     1 C         -1.662847   -0.424739   -1.351052 C.3        1 UNL1     0.1889
     2 C         -0.446508   0.430492   -0.904914 C.3        1 UNL1     0.1342
     3 C         -0.763056   1.912357   -0.651266 C.3        1 UNL1     0.1174
     4 C         -1.83091   2.462024   -1.600303 C.3        1 UNL1     0.1456
     5 C         -3.046164   1.525343   -1.727389 C.3        1 UNL1     0.2326
     6 O         -2.622333   0.235664   -2.163239 O.3        1 UNL1     -0.3076
     7 O         -3.863016   1.482287   -0.543235 O.3        1 UNL1     -0.4605
     8 C         -4.415315   2.685965   -0.143672 C.ar        1 UNL1     0.1310
     9 C         -5.164746   2.886919   1.02049 C.ar        1 UNL1     0.0226
     10 C         -5.668608   4.151443   1.347602 C.ar        1 UNL1     0.1343
     11 C         -5.414811   5.251708   0.529771 C.ar        1 UNL1     0.1007
     12 C         -4.702521   5.055358   -0.656345 C.ar        1 UNL1     0.1389
     13 C         -4.198249   3.783263   -0.986369 C.ar        1 UNL1     0.0229
     14 C         -5.851394   6.625698   0.869918 C.2        1 UNL1     0.1740
     15 C         -5.303072   7.716012   -0.00307 C.3        1 UNL1     0.0520
     16 C         -5.306795   7.226619   -1.444748 C.3        1 UNL1     0.1322
     17 O         -4.487849   6.045062   -1.587296 O.3        1 UNL1     -0.4828
     18 C         -6.707145   7.10472   -2.050458 C.ar        1 UNL1     -0.0067
     19 C         -7.185481   8.123673   -2.899659 C.ar        1 UNL1     -0.0516
     20 C         -8.478923   8.066587   -3.432304 C.ar        1 UNL1     -0.0198
     21 C         -9.304514   7.001916   -3.118134 C.ar        1 UNL1     0.1169
     22 C         -8.850273   5.966503   -2.311645 C.ar        1 UNL1     -0.0198
     23 C         -7.550436   6.014143   -1.793754 C.ar        1 UNL1     -0.0516
     24 O         -10.57082   6.999405   -3.62495 O.3        1 UNL1     -0.5068
     25 O         -6.549966   6.891346   1.844553 O.2        1 UNL1     -0.2917
     26 O         -6.392845   4.28012   2.496736 O.3        1 UNL1     -0.5058
     27 O         -2.276769   -1.133282   -0.286227 O.3        1 UNL1     -0.3648
     28 O         0.552856   0.376982   -1.939861 O.3        1 UNL1     -0.3841
     29 O         -1.077856   2.135288   0.724719 O.3        1 UNL1     -0.3863
     30 O         -1.250292   2.649145   -2.909332 O.3        1 UNL1     -0.3829
     31 H         -1.269779   -1.209876   -2.006137 H        1 UNL1     0.0937
     32 H         0.0   0.0   0.0 H        1 UNL1     0.0671
     33 H         0.154395   2.487918   -0.837634 H        1 UNL1     0.0649
     34 H         -2.167231   3.445987   -1.255186 H        1 UNL1     0.0683
     35 H         -3.632216   1.961946   -2.545802 H        1 UNL1     0.1085
     36 H         -5.34913   2.083892   1.725664 H        1 UNL1     0.0691
     37 H         -3.647761   3.656511   -1.916095 H        1 UNL1     0.0691
     38 H         -4.285063   7.932767   0.337813 H        1 UNL1     0.0385
     39 H         -5.907701   8.619766   0.128958 H        1 UNL1     0.0385
     40 H         -4.795133   7.989587   -2.046913 H        1 UNL1     0.0789
     41 H         -6.560143   8.974485   -3.154065 H        1 UNL1     0.0623
     42 H         -8.840382   8.864449   -4.076335 H        1 UNL1     0.0654
     43 H         -9.483231   5.120589   -2.07143 H        1 UNL1     0.0654
     44 H         -7.224911   5.182837   -1.175847 H        1 UNL1     0.0623
     45 H         -10.792617   6.09255   -3.891665 H        1 UNL1     0.2921
     46 H         -7.058923   4.976422   2.383093 H        1 UNL1     0.2922
     47 H         -2.628193   -0.514427   0.369043 H        1 UNL1     0.2126
     48 H         1.330383   0.862651   -1.603246 H        1 UNL1     0.2101
     49 H         -1.040776   1.296732   1.211796 H        1 UNL1     0.2100
     50 H         -1.243311   3.609723   -3.101563 H        1 UNL1     0.2102
@<TRIPOS>BOND
     1     1     2    1
     2     1     6    1
     3     2     3    1
     4     3     4    1
     5     3    29    1
     6     3    33    1
     7     4     5    1
     8     5     6    1
     9     5     7    1
    10     5    35    1
    11     7     8    1
    12     8     9   ar
    13     8    13   ar
    14     9    10   ar
    15     9    36    1
    16    10    11   ar
    17    10    26    1
    18    11    12   ar
    19    11    14    1
    20    12    13   ar
    21    12    17    1
    22    13    37    1
    23    14    15    1
    24    14    25    2
    25    15    16    1
    26    15    38    1
    27    15    39    1
    28    16    17    1
    29    16    18    1
    30    16    40    1
    31    18    19   ar
    32    18    23   ar
    33    19    20   ar
    34    19    41    1
    35    20    21   ar
    36    20    42    1
    37    21    22   ar
    38    21    24    1
    39    22    23   ar
    40    22    43    1
    41    23    44    1
    42    24    45    1
    43    26    46    1
    44    27    47    1
    45    28    48    1
    46    29    49    1
    47    30    50    1
    48     1    31    1
    49     1    27    1
    50     2    32    1
    51     2    28    1
    52     4    34    1
    53     4    30    1
