@<TRIPOS>MOLECULE
*****
 50 53 0 0 0
SMALL
GASTEIGER

@<TRIPOS>ATOM
     1 C         1.238877   -1.716929   0.536791 C.3        1 UNL1     0.1889
     2 C         0.131725   -1.042031   -0.31683 C.3        1 UNL1     0.1342
     3 C         -1.229699   -1.75308   -0.279403 C.3        1 UNL1     0.1174
     4 C         -1.101742   -3.275333   -0.181995 C.3        1 UNL1     0.1456
     5 C         -0.082188   -3.714882   0.884622 C.3        1 UNL1     0.2326
     6 O         1.190511   -3.134267   0.608956 O.3        1 UNL1     -0.3076
     7 O         -0.528686   -3.485324   2.233422 O.3        1 UNL1     -0.4605
     8 C         -1.72055   -4.090888   2.588784 C.ar        1 UNL1     0.1310
     9 C         -2.089681   -4.452516   3.888888 C.ar        1 UNL1     0.0226
     10 C         -3.329795   -5.047289   4.15016 C.ar        1 UNL1     0.1343
     11 C         -4.241523   -5.273339   3.119871 C.ar        1 UNL1     0.1007
     12 C         -3.867742   -4.954101   1.811758 C.ar        1 UNL1     0.1389
     13 C         -2.619696   -4.358496   1.548957 C.ar        1 UNL1     0.0229
     14 C         -5.598159   -5.821364   3.350872 C.2        1 UNL1     0.1740
     15 C         -6.521357   -5.789352   2.168404 C.3        1 UNL1     0.0520
     16 C         -5.725668   -6.164075   0.925657 C.3        1 UNL1     0.1322
     17 O         -4.642766   -5.232496   0.709896 O.3        1 UNL1     -0.4828
     18 C         -5.313787   -7.637466   0.878773 C.ar        1 UNL1     -0.0067
     19 C         -5.769755   -8.450696   -0.179038 C.ar        1 UNL1     -0.0516
     20 C         -5.450797   -9.813032   -0.226679 C.ar        1 UNL1     -0.0198
     21 C         -4.684495   -10.374411   0.779036 C.ar        1 UNL1     0.1169
     22 C         -4.192845   -9.592366   1.816111 C.ar        1 UNL1     -0.0198
     23 C         -4.496254   -8.22615   1.854214 C.ar        1 UNL1     -0.0516
     24 O         -4.425773   -11.712266   0.718975 O.3        1 UNL1     -0.5068
     25 O         -5.99344   -6.208053   4.447553 O.2        1 UNL1     -0.2917
     26 O         -3.628454   -5.377102   5.43997 O.3        1 UNL1     -0.5058
     27 O         1.39892   -1.132354   1.819541 O.3        1 UNL1     -0.3648
     28 O         0.565028   -1.018308   -1.689562 O.3        1 UNL1     -0.3841
     29 O         -2.062085   -1.201128   0.742661 O.3        1 UNL1     -0.3863
     30 O         -0.688286   -3.79891   -1.462858 O.3        1 UNL1     -0.3829
     31 H         2.189416   -1.518653   0.029603 H        1 UNL1     0.0937
     32 H         -0.0   0.0   0.0 H        1 UNL1     0.0671
     33 H         -1.746737   -1.53747   -1.224868 H        1 UNL1     0.0649
     34 H         -2.077359   -3.71883   0.045783 H        1 UNL1     0.0683
     35 H         0.018854   -4.795634   0.724482 H        1 UNL1     0.1085
     36 H         -1.448496   -4.252151   4.740272 H        1 UNL1     0.0691
     37 H         -2.352115   -4.120504   0.521702 H        1 UNL1     0.0691
     38 H         -6.922673   -4.773398   2.088973 H        1 UNL1     0.0385
     39 H         -7.357247   -6.474314   2.346996 H        1 UNL1     0.0385
     40 H         -6.388151   -6.019898   0.061453 H        1 UNL1     0.0789
     41 H         -6.380379   -8.0359   -0.975739 H        1 UNL1     0.0623
     42 H         -5.818325   -10.432142   -1.041319 H        1 UNL1     0.0654
     43 H         -3.579339   -10.018648   2.600844 H        1 UNL1     0.0654
     44 H         -4.086615   -7.643072   2.673397 H        1 UNL1     0.0623
     45 H         -5.264199   -12.191576   0.819069 H        1 UNL1     0.2921
     46 H         -4.379122   -5.991742   5.451209 H        1 UNL1     0.2922
     47 H         2.338501   -1.033438   2.02754 H        1 UNL1     0.2126
     48 H         1.228837   -1.72814   -1.785629 H        1 UNL1     0.2101
     49 H         -2.319394   -1.89574   1.369637 H        1 UNL1     0.2100
     50 H         -0.761615   -3.077367   -2.121425 H        1 UNL1     0.2102
@<TRIPOS>BOND
     1     1     2    1
     2     1     6    1
     3     2     3    1
     4     3     4    1
     5     3    29    1
     6     3    33    1
     7     4     5    1
     8     5     6    1
     9     5     7    1
    10     5    35    1
    11     7     8    1
    12     8     9   ar
    13     8    13   ar
    14     9    10   ar
    15     9    36    1
    16    10    11   ar
    17    10    26    1
    18    11    12   ar
    19    11    14    1
    20    12    13   ar
    21    12    17    1
    22    13    37    1
    23    14    15    1
    24    14    25    2
    25    15    16    1
    26    15    38    1
    27    15    39    1
    28    16    17    1
    29    16    18    1
    30    16    40    1
    31    18    19   ar
    32    18    23   ar
    33    19    20   ar
    34    19    41    1
    35    20    21   ar
    36    20    42    1
    37    21    22   ar
    38    21    24    1
    39    22    23   ar
    40    22    43    1
    41    23    44    1
    42    24    45    1
    43    26    46    1
    44    27    47    1
    45    28    48    1
    46    29    49    1
    47    30    50    1
    48     1    31    1
    49     1    27    1
    50     2    32    1
    51     2    28    1
    52     4    34    1
    53     4    30    1
