@<TRIPOS>MOLECULE
*****
 50 53 0 0 0
SMALL
GASTEIGER

@<TRIPOS>ATOM
     1 C         -0.349893   -1.337936   1.690653 C.3        1 UNL1     0.1889
     2 C         -0.471866   -0.972633   0.186785 C.3        1 UNL1     0.1342
     3 C         -1.910635   -0.943171   -0.351304 C.3        1 UNL1     0.1174
     4 C         -2.808723   -1.999314   0.297631 C.3        1 UNL1     0.1456
     5 C         -2.662761   -2.03743   1.829821 C.3        1 UNL1     0.2326
     6 O         -1.30112   -2.270365   2.182728 O.3        1 UNL1     -0.3076
     7 O         -3.229687   -0.890152   2.488356 O.3        1 UNL1     -0.4605
     8 C         -3.752827   -1.112112   3.749541 C.ar        1 UNL1     0.1310
     9 C         -4.584956   -2.178983   4.105418 C.ar        1 UNL1     0.0226
     10 C         -5.05089   -2.327048   5.417243 C.ar        1 UNL1     0.1343
     11 C         -4.676274   -1.424172   6.411385 C.ar        1 UNL1     0.1007
     12 C         -3.879071   -0.331825   6.059207 C.ar        1 UNL1     0.1389
     13 C         -3.412865   -0.181701   4.739531 C.ar        1 UNL1     0.0229
     14 C         -5.070898   -1.579605   7.830634 C.2        1 UNL1     0.1740
     15 C         -4.399063   -0.648858   8.797018 C.3        1 UNL1     0.0520
     16 C         -4.307952   0.728651   8.155048 C.3        1 UNL1     0.1322
     17 O         -3.539531   0.674998   6.93287 O.3        1 UNL1     -0.4828
     18 C         -5.657817   1.438358   8.025032 C.ar        1 UNL1     -0.0067
     19 C         -6.011992   2.033254   6.79667 C.ar        1 UNL1     -0.0516
     20 C         -7.21785   2.730771   6.657606 C.ar        1 UNL1     -0.0198
     21 C         -8.072792   2.846523   7.739041 C.ar        1 UNL1     0.1169
     22 C         -7.767271   2.243097   8.952043 C.ar        1 UNL1     -0.0198
     23 C         -6.570052   1.529829   9.086095 C.ar        1 UNL1     -0.0516
     24 O         -9.220487   3.565448   7.576728 O.3        1 UNL1     -0.5068
     25 O         -5.833552   -2.456405   8.228208 O.2        1 UNL1     -0.2917
     26 O         -5.860279   -3.388776   5.698683 O.3        1 UNL1     -0.5058
     27 O         -0.237349   -0.207001   2.539832 O.3        1 UNL1     -0.3648
     28 O         0.252547   -1.951888   -0.580673 O.3        1 UNL1     -0.3841
     29 O         -2.456531   0.374807   -0.267246 O.3        1 UNL1     -0.3863
     30 O         -2.471017   -3.299257   -0.233211 O.3        1 UNL1     -0.3829
     31 H         0.605705   -1.860299   1.809181 H        1 UNL1     0.0937
     32 H         0.0   0.0   0.0 H        1 UNL1     0.0671
     33 H         -1.871986   -1.175045   -1.424831 H        1 UNL1     0.0649
     34 H         -3.856289   -1.809626   0.038741 H        1 UNL1     0.0683
     35 H         -3.226572   -2.930521   2.127113 H        1 UNL1     0.1085
     36 H         -4.866465   -2.945294   3.391527 H        1 UNL1     0.0691
     37 H         -2.794439   0.678043   4.490769 H        1 UNL1     0.0691
     38 H         -3.4032   -1.052896   9.008056 H        1 UNL1     0.0385
     39 H         -4.967046   -0.632503   9.733451 H        1 UNL1     0.0385
     40 H         -3.711175   1.360133   8.827065 H        1 UNL1     0.0789
     41 H         -5.35384   1.964396   5.935423 H        1 UNL1     0.0623
     42 H         -7.474157   3.195248   5.708617 H        1 UNL1     0.0654
     43 H         -8.436612   2.314732   9.80102 H        1 UNL1     0.0654
     44 H         -6.36837   1.062214   10.045004 H        1 UNL1     0.0623
     45 H         -8.9809   4.478273   7.34855 H        1 UNL1     0.2921
     46 H         -5.469362   -3.912409   6.415902 H        1 UNL1     0.2922
     47 H         0.505653   0.347113   2.262767 H        1 UNL1     0.2126
     48 H         1.191739   -1.867354   -0.326696 H        1 UNL1     0.2101
     49 H         -2.016044   0.955914   -0.90762 H        1 UNL1     0.2100
     50 H         -2.706275   -3.307008   -1.184161 H        1 UNL1     0.2102
@<TRIPOS>BOND
     1     1     2    1
     2     1     6    1
     3     2     3    1
     4     3     4    1
     5     3    29    1
     6     3    33    1
     7     4     5    1
     8     5     6    1
     9     5     7    1
    10     5    35    1
    11     7     8    1
    12     8     9   ar
    13     8    13   ar
    14     9    10   ar
    15     9    36    1
    16    10    11   ar
    17    10    26    1
    18    11    12   ar
    19    11    14    1
    20    12    13   ar
    21    12    17    1
    22    13    37    1
    23    14    15    1
    24    14    25    2
    25    15    16    1
    26    15    38    1
    27    15    39    1
    28    16    17    1
    29    16    18    1
    30    16    40    1
    31    18    19   ar
    32    18    23   ar
    33    19    20   ar
    34    19    41    1
    35    20    21   ar
    36    20    42    1
    37    21    22   ar
    38    21    24    1
    39    22    23   ar
    40    22    43    1
    41    23    44    1
    42    24    45    1
    43    26    46    1
    44    27    47    1
    45    28    48    1
    46    29    49    1
    47    30    50    1
    48     1    31    1
    49     1    27    1
    50     2    32    1
    51     2    28    1
    52     4    34    1
    53     4    30    1
