@<TRIPOS>MOLECULE
*****
 50 53 0 0 0
SMALL
GASTEIGER

@<TRIPOS>ATOM
     1 C         -0.162164   0.022987   -2.178068 C.3        1 UNL1     0.1889
     2 C         -0.461737   0.6214   -0.777318 C.3        1 UNL1     0.1342
     3 C         -1.954999   0.793845   -0.459677 C.3        1 UNL1     0.1174
     4 C         -2.784314   1.167806   -1.690736 C.3        1 UNL1     0.1456
     5 C         -2.451924   0.293993   -2.913983 C.3        1 UNL1     0.2326
     6 O         -1.061383   0.387646   -3.214805 O.3        1 UNL1     -0.3076
     7 O         -2.914179   -1.063435   -2.791385 O.3        1 UNL1     -0.4605
     8 C         -3.977181   -1.26636   -1.929772 C.ar        1 UNL1     0.1310
     9 C         -3.939813   -1.093474   -0.541963 C.ar        1 UNL1     0.0226
     10 C         -5.077563   -1.308185   0.24501 C.ar        1 UNL1     0.1343
     11 C         -6.287745   -1.678297   -0.34007 C.ar        1 UNL1     0.1007
     12 C         -6.327008   -1.893847   -1.720208 C.ar        1 UNL1     0.1389
     13 C         -5.182195   -1.680455   -2.510966 C.ar        1 UNL1     0.0229
     14 C         -7.541005   -1.83683   0.433467 C.2        1 UNL1     0.1740
     15 C         -8.788245   -2.017454   -0.380976 C.3        1 UNL1     0.0520
     16 C         -8.469378   -2.934785   -1.553489 C.3        1 UNL1     0.1322
     17 O         -7.435813   -2.363214   -2.385425 O.3        1 UNL1     -0.4828
     18 C         -8.224937   -4.390389   -1.148285 C.ar        1 UNL1     -0.0067
     19 C         -9.326252   -5.247995   -0.948709 C.ar        1 UNL1     -0.0516
     20 C         -9.139823   -6.571431   -0.531907 C.ar        1 UNL1     -0.0198
     21 C         -7.860376   -7.046002   -0.304699 C.ar        1 UNL1     0.1169
     22 C         -6.754176   -6.235623   -0.524806 C.ar        1 UNL1     -0.0198
     23 C         -6.939385   -4.917708   -0.959381 C.ar        1 UNL1     -0.0516
     24 O         -7.719875   -8.328792   0.137013 O.3        1 UNL1     -0.5068
     25 O         -7.595759   -1.749569   1.657343 O.2        1 UNL1     -0.2917
     26 O         -4.974252   -1.12341   1.592886 O.3        1 UNL1     -0.5058
     27 O         0.072948   -1.37596   -2.156698 O.3        1 UNL1     -0.3648
     28 O         0.146253   1.924015   -0.698284 O.3        1 UNL1     -0.3841
     29 O         -2.46406   -0.353871   0.222772 O.3        1 UNL1     -0.3863
     30 O         -2.53641   2.550294   -2.026828 O.3        1 UNL1     -0.3829
     31 H         0.791781   0.451796   -2.503934 H        1 UNL1     0.0937
     32 H         0.0   0.0   0.0 H        1 UNL1     0.0671
     33 H         -2.052432   1.624351   0.253405 H        1 UNL1     0.0649
     34 H         -3.852388   1.079859   -1.462952 H        1 UNL1     0.0683
     35 H         -2.989977   0.777857   -3.738758 H        1 UNL1     0.1085
     36 H         -3.044423   -0.752813   -0.033684 H        1 UNL1     0.0691
     37 H         -5.238609   -1.856277   -3.583065 H        1 UNL1     0.0691
     38 H         -9.103287   -1.02765   -0.728198 H        1 UNL1     0.0385
     39 H         -9.579201   -2.423185   0.258984 H        1 UNL1     0.0385
     40 H         -9.358812   -2.957896   -2.197611 H        1 UNL1     0.0789
     41 H         -10.34103   -4.896724   -1.111453 H        1 UNL1     0.0623
     42 H         -9.997729   -7.21935   -0.370012 H        1 UNL1     0.0654
     43 H         -5.747102   -6.601674   -0.364437 H        1 UNL1     0.0654
     44 H         -6.052189   -4.315947   -1.131462 H        1 UNL1     0.0623
     45 H         -7.757236   -8.923061   -0.629907 H        1 UNL1     0.2921
     46 H         -5.57249   -0.411001   1.86856 H        1 UNL1     0.2922
     47 H         -0.174656   -1.743988   -1.296984 H        1 UNL1     0.2126
     48 H         1.052136   1.789738   -0.359053 H        1 UNL1     0.2101
     49 H         -3.414128   -0.447158   0.048235 H        1 UNL1     0.2100
     50 H         -1.884508   2.570656   -2.757801 H        1 UNL1     0.2102
@<TRIPOS>BOND
     1     1     2    1
     2     1     6    1
     3     2     3    1
     4     3     4    1
     5     3    29    1
     6     3    33    1
     7     4     5    1
     8     5     6    1
     9     5     7    1
    10     5    35    1
    11     7     8    1
    12     8     9   ar
    13     8    13   ar
    14     9    10   ar
    15     9    36    1
    16    10    11   ar
    17    10    26    1
    18    11    12   ar
    19    11    14    1
    20    12    13   ar
    21    12    17    1
    22    13    37    1
    23    14    15    1
    24    14    25    2
    25    15    16    1
    26    15    38    1
    27    15    39    1
    28    16    17    1
    29    16    18    1
    30    16    40    1
    31    18    19   ar
    32    18    23   ar
    33    19    20   ar
    34    19    41    1
    35    20    21   ar
    36    20    42    1
    37    21    22   ar
    38    21    24    1
    39    22    23   ar
    40    22    43    1
    41    23    44    1
    42    24    45    1
    43    26    46    1
    44    27    47    1
    45    28    48    1
    46    29    49    1
    47    30    50    1
    48     1    31    1
    49     1    27    1
    50     2    32    1
    51     2    28    1
    52     4    34    1
    53     4    30    1
