@<TRIPOS>MOLECULE
*****
 50 53 0 0 0
SMALL
GASTEIGER

@<TRIPOS>ATOM
     1 C         -0.335087   -1.3303   1.699654 C.3        1 UNL1     0.1889
     2 C         -0.463937   -0.975041   0.193955 C.3        1 UNL1     0.1342
     3 C         -1.904351   -0.959765   -0.340311 C.3        1 UNL1     0.1174
     4 C         -2.7926   -2.018753   0.317469 C.3        1 UNL1     0.1456
     5 C         -2.642175   -2.046486   1.84945 C.3        1 UNL1     0.2326
     6 O         -1.277843   -2.266933   2.199979 O.3        1 UNL1     -0.3076
     7 O         -3.216021   -0.899584   2.502624 O.3        1 UNL1     -0.4605
     8 C         -3.727222   -1.116213   3.769618 C.ar        1 UNL1     0.1310
     9 C         -4.545449   -2.188585   4.140862 C.ar        1 UNL1     0.0226
     10 C         -4.999835   -2.330301   5.457431 C.ar        1 UNL1     0.1343
     11 C         -4.627118   -1.41516   6.441016 C.ar        1 UNL1     0.1007
     12 C         -3.844053   -0.317644   6.073524 C.ar        1 UNL1     0.1389
     13 C         -3.389475   -0.173933   4.749085 C.ar        1 UNL1     0.0229
     14 C         -5.009308   -1.562589   7.864515 C.2        1 UNL1     0.1740
     15 C         -4.339899   -0.616735   8.817825 C.3        1 UNL1     0.0520
     16 C         -4.268042   0.75613   8.163581 C.3        1 UNL1     0.1322
     17 O         -3.508409   0.700046   6.93603 O.3        1 UNL1     -0.4828
     18 C         -5.626186   1.450673   8.03796 C.ar        1 UNL1     -0.0067
     19 C         -6.002153   2.01834   6.803207 C.ar        1 UNL1     -0.0516
     20 C         -7.216312   2.701851   6.666853 C.ar        1 UNL1     -0.0198
     21 C         -8.057992   2.830638   7.757181 C.ar        1 UNL1     0.1169
     22 C         -7.730793   2.253695   8.977393 C.ar        1 UNL1     -0.0198
     23 C         -6.525187   1.55426   9.109156 C.ar        1 UNL1     -0.0516
     24 O         -9.214505   3.535639   7.596394 O.3        1 UNL1     -0.5068
     25 O         -5.759732   -2.443833   8.275317 O.2        1 UNL1     -0.2917
     26 O         -5.795943   -3.397929   5.754024 O.3        1 UNL1     -0.5058
     27 O         -0.228841   -0.193424   2.541683 O.3        1 UNL1     -0.3648
     28 O         0.265814   -1.953391   -0.569589 O.3        1 UNL1     -0.3841
     29 O         -2.460033   0.354512   -0.262689 O.3        1 UNL1     -0.3863
     30 O         -2.446457   -3.319282   -0.206459 O.3        1 UNL1     -0.3829
     31 H         0.624779   -1.844662   1.81868 H        1 UNL1     0.0937
     32 H         0.0   0.0   0.0 H        1 UNL1     0.0671
     33 H         -1.866865   -1.197832   -1.412524 H        1 UNL1     0.0649
     34 H         -3.842282   -1.838598   0.060345 H        1 UNL1     0.0683
     35 H         -3.198358   -2.94202   2.153685 H        1 UNL1     0.1085
     36 H         -4.824362   -2.963823   3.435643 H        1 UNL1     0.0691
     37 H         -2.781959   0.690027   4.488338 H        1 UNL1     0.0691
     38 H         -3.3383   -1.008615   9.024605 H        1 UNL1     0.0385
     39 H         -4.900892   -0.598299   9.758424 H        1 UNL1     0.0385
     40 H         -3.672798   1.399464   8.825644 H        1 UNL1     0.0789
     41 H         -5.354782   1.938885   5.934732 H        1 UNL1     0.0623
     42 H         -7.489504   3.14545   5.712601 H        1 UNL1     0.0654
     43 H         -8.389539   2.335586   9.833698 H        1 UNL1     0.0654
     44 H         -6.306453   1.10721   10.074115 H        1 UNL1     0.0623
     45 H         -8.986698   4.445311   7.344765 H        1 UNL1     0.2921
     46 H         -5.393457   -3.912134   6.471667 H        1 UNL1     0.2922
     47 H         0.515109   0.359684   2.265151 H        1 UNL1     0.2126
     48 H         1.199564   -1.885346   -0.291718 H        1 UNL1     0.2101
     49 H         -2.020003   0.937143   -0.901994 H        1 UNL1     0.2100
     50 H         -2.679019   -3.332653   -1.158009 H        1 UNL1     0.2102
@<TRIPOS>BOND
     1     1     2    1
     2     1     6    1
     3     2     3    1
     4     3     4    1
     5     3    29    1
     6     3    33    1
     7     4     5    1
     8     5     6    1
     9     5     7    1
    10     5    35    1
    11     7     8    1
    12     8     9   ar
    13     8    13   ar
    14     9    10   ar
    15     9    36    1
    16    10    11   ar
    17    10    26    1
    18    11    12   ar
    19    11    14    1
    20    12    13   ar
    21    12    17    1
    22    13    37    1
    23    14    15    1
    24    14    25    2
    25    15    16    1
    26    15    38    1
    27    15    39    1
    28    16    17    1
    29    16    18    1
    30    16    40    1
    31    18    19   ar
    32    18    23   ar
    33    19    20   ar
    34    19    41    1
    35    20    21   ar
    36    20    42    1
    37    21    22   ar
    38    21    24    1
    39    22    23   ar
    40    22    43    1
    41    23    44    1
    42    24    45    1
    43    26    46    1
    44    27    47    1
    45    28    48    1
    46    29    49    1
    47    30    50    1
    48     1    31    1
    49     1    27    1
    50     2    32    1
    51     2    28    1
    52     4    34    1
    53     4    30    1
