@<TRIPOS>MOLECULE
*****
 50 53 0 0 0
SMALL
GASTEIGER

@<TRIPOS>ATOM
     1 C         -0.27652   -2.164018   -0.106622 C.3        1 UNL1     0.1889
     2 C         -0.830258   -0.714428   -0.061859 C.3        1 UNL1     0.1342
     3 C         -1.814702   -0.439175   1.085124 C.3        1 UNL1     0.1174
     4 C         -2.692448   -1.648537   1.416974 C.3        1 UNL1     0.1456
     5 C         -1.883235   -2.954109   1.521948 C.3        1 UNL1     0.2326
     6 O         -1.172801   -3.184618   0.307444 O.3        1 UNL1     -0.3076
     7 O         -1.043501   -3.015747   2.689153 O.3        1 UNL1     -0.4605
     8 C         -0.84381   -4.274684   3.226487 C.ar        1 UNL1     0.1310
     9 C         -1.845215   -5.102389   3.745519 C.ar        1 UNL1     0.0226
     10 C         -1.543946   -6.371741   4.253342 C.ar        1 UNL1     0.1343
     11 C         -0.236028   -6.854195   4.232606 C.ar        1 UNL1     0.1007
     12 C         0.778572   -6.020659   3.754496 C.ar        1 UNL1     0.1389
     13 C         0.475769   -4.743338   3.246371 C.ar        1 UNL1     0.0229
     14 C         0.125858   -8.219511   4.678819 C.2        1 UNL1     0.1740
     15 C         1.532232   -8.648841   4.379928 C.3        1 UNL1     0.0520
     16 C         2.460465   -7.469175   4.634345 C.3        1 UNL1     0.1322
     17 O         2.113372   -6.351569   3.787261 O.3        1 UNL1     -0.4828
     18 C         2.618146   -7.117481   6.115619 C.ar        1 UNL1     -0.0067
     19 C         3.591192   -6.173596   6.503534 C.ar        1 UNL1     -0.0516
     20 C         3.793745   -5.864271   7.853812 C.ar        1 UNL1     -0.0198
     21 C         3.036474   -6.495958   8.824038 C.ar        1 UNL1     0.1169
     22 C         2.047722   -7.405183   8.471165 C.ar        1 UNL1     -0.0198
     23 C         1.832344   -7.70101   7.119812 C.ar        1 UNL1     -0.0516
     24 O         3.287882   -6.19724   10.130928 O.3        1 UNL1     -0.5068
     25 O         -0.674933   -8.998548   5.189035 O.2        1 UNL1     -0.2917
     26 O         -2.566309   -7.129031   4.746161 O.3        1 UNL1     -0.5058
     27 O         0.994898   -2.302747   0.507412 O.3        1 UNL1     -0.3648
     28 O         -1.525682   -0.45353   -1.295157 O.3        1 UNL1     -0.3841
     29 O         -1.130003   0.077953   2.227883 O.3        1 UNL1     -0.3863
     30 O         -3.6932   -1.804317   0.387452 O.3        1 UNL1     -0.3829
     31 H         -0.093387   -2.396503   -1.161369 H        1 UNL1     0.0937
     32 H         0.0   0.0   0.0 H        1 UNL1     0.0671
     33 H         -2.490478   0.364715   0.761386 H        1 UNL1     0.0649
     34 H         -3.225409   -1.476673   2.358684 H        1 UNL1     0.0683
     35 H         -2.650056   -3.735368   1.59611 H        1 UNL1     0.1085
     36 H         -2.888896   -4.807764   3.738707 H        1 UNL1     0.0691
     37 H         1.283904   -4.113349   2.880961 H        1 UNL1     0.0691
     38 H         1.567543   -8.960012   3.330427 H        1 UNL1     0.0385
     39 H         1.783068   -9.514761   5.002057 H        1 UNL1     0.0385
     40 H         3.462723   -7.767552   4.298233 H        1 UNL1     0.0789
     41 H         4.204769   -5.670783   5.761676 H        1 UNL1     0.0623
     42 H         4.55532   -5.143486   8.141015 H        1 UNL1     0.0654
     43 H         1.438726   -7.89446   9.221925 H        1 UNL1     0.0654
     44 H         1.044325   -8.408241   6.879612 H        1 UNL1     0.0623
     45 H         4.179042   -5.816785   10.192619 H        1 UNL1     0.2921
     46 H         -2.479562   -8.039614   4.422547 H        1 UNL1     0.2922
     47 H         0.892381   -2.490076   1.450947 H        1 UNL1     0.2126
     48 H         -2.342485   0.027081   -1.059408 H        1 UNL1     0.2101
     49 H         -0.962413   -0.636153   2.863305 H        1 UNL1     0.2100
     50 H         -3.99182   -0.910581   0.119546 H        1 UNL1     0.2102
@<TRIPOS>BOND
     1     1     2    1
     2     1     6    1
     3     2     3    1
     4     3     4    1
     5     3    29    1
     6     3    33    1
     7     4     5    1
     8     5     6    1
     9     5     7    1
    10     5    35    1
    11     7     8    1
    12     8     9   ar
    13     8    13   ar
    14     9    10   ar
    15     9    36    1
    16    10    11   ar
    17    10    26    1
    18    11    12   ar
    19    11    14    1
    20    12    13   ar
    21    12    17    1
    22    13    37    1
    23    14    15    1
    24    14    25    2
    25    15    16    1
    26    15    38    1
    27    15    39    1
    28    16    17    1
    29    16    18    1
    30    16    40    1
    31    18    19   ar
    32    18    23   ar
    33    19    20   ar
    34    19    41    1
    35    20    21   ar
    36    20    42    1
    37    21    22   ar
    38    21    24    1
    39    22    23   ar
    40    22    43    1
    41    23    44    1
    42    24    45    1
    43    26    46    1
    44    27    47    1
    45    28    48    1
    46    29    49    1
    47    30    50    1
    48     1    31    1
    49     1    27    1
    50     2    32    1
    51     2    28    1
    52     4    34    1
    53     4    30    1
