@<TRIPOS>MOLECULE
*****
 50 53 0 0 0
SMALL
GASTEIGER

@<TRIPOS>ATOM
     1 C         -0.350533   -1.338568   1.69002 C.3        1 UNL1     0.1889
     2 C         -0.471694   -0.97283   0.186193 C.3        1 UNL1     0.1342
     3 C         -1.910142   -0.943623   -0.352768 C.3        1 UNL1     0.1174
     4 C         -2.808316   -2.000233   0.295288 C.3        1 UNL1     0.1456
     5 C         -2.66328   -2.038785   1.827555 C.3        1 UNL1     0.2326
     6 O         -1.301786   -2.271431   2.181222 O.3        1 UNL1     -0.3076
     7 O         -3.230947   -0.89188   2.486102 O.3        1 UNL1     -0.4605
     8 C         -3.758185   -1.115176   3.745342 C.ar        1 UNL1     0.1310
     9 C         -4.59258   -2.181661   4.097048 C.ar        1 UNL1     0.0226
     10 C         -5.062686   -2.331202   5.407216 C.ar        1 UNL1     0.1343
     11 C         -4.690112   -1.430256   6.403873 C.ar        1 UNL1     0.1007
     12 C         -3.890628   -0.338262   6.055798 C.ar        1 UNL1     0.1389
     13 C         -3.420222   -0.18665   4.737783 C.ar        1 UNL1     0.0229
     14 C         -5.089246   -1.587407   7.821671 C.2        1 UNL1     0.1740
     15 C         -4.419339   -0.658878   8.79152 C.3        1 UNL1     0.0520
     16 C         -4.324741   0.719503   8.151932 C.3        1 UNL1     0.1322
     17 O         -3.552646   0.666854   6.932027 O.3        1 UNL1     -0.4828
     18 C         -5.673415   1.430908   8.018872 C.ar        1 UNL1     -0.0067
     19 C         -6.023173   2.028064   6.790341 C.ar        1 UNL1     -0.0516
     20 C         -7.227827   2.727132   6.648657 C.ar        1 UNL1     -0.0198
     21 C         -8.085944   2.842189   7.727649 C.ar        1 UNL1     0.1169
     22 C         -7.784801   2.236581   8.940658 C.ar        1 UNL1     -0.0198
     23 C         -6.588788   1.521779   9.077281 C.ar        1 UNL1     -0.0516
     24 O         -9.23234   3.562636   7.562925 O.3        1 UNL1     -0.5068
     25 O         -5.854082   -2.463962   8.215576 O.2        1 UNL1     -0.2917
     26 O         -5.874107   -3.392456   5.684563 O.3        1 UNL1     -0.5058
     27 O         -0.238842   -0.207865   2.539622 O.3        1 UNL1     -0.3648
     28 O         0.253477   -1.951631   -0.581129 O.3        1 UNL1     -0.3841
     29 O         -2.456477   0.374168   -0.268631 O.3        1 UNL1     -0.3863
     30 O         -2.469903   -3.29991   -0.235754 O.3        1 UNL1     -0.3829
     31 H         0.605146   -1.860687   1.808969 H        1 UNL1     0.0937
     32 H         0.0   0.0   0.0 H        1 UNL1     0.0671
     33 H         -1.870768   -1.17515   -1.426344 H        1 UNL1     0.0649
     34 H         -3.855779   -1.810772   0.035816 H        1 UNL1     0.0683
     35 H         -3.22701   -2.932136   2.124223 H        1 UNL1     0.1085
     36 H         -4.872753   -2.946572   3.381134 H        1 UNL1     0.0691
     37 H         -2.800087   0.672784   4.492222 H        1 UNL1     0.0691
     38 H         -3.424574   -1.064343   9.004985 H        1 UNL1     0.0385
     39 H         -4.990164   -0.643315   9.726237 H        1 UNL1     0.0385
     40 H         -3.729322   1.349299   8.826731 H        1 UNL1     0.0789
     41 H         -5.362468   1.959784   5.931006 H        1 UNL1     0.0623
     42 H         -7.480717   3.193335   5.699598 H        1 UNL1     0.0654
     43 H         -8.456656   2.307669   9.787693 H        1 UNL1     0.0654
     44 H         -6.390557   1.052483   10.036088 H        1 UNL1     0.0623
     45 H         -8.990972   4.480691   7.358885 H        1 UNL1     0.2921
     46 H         -5.485965   -3.917614   6.402175 H        1 UNL1     0.2922
     47 H         0.497335   0.352259   2.25649 H        1 UNL1     0.2126
     48 H         1.192488   -1.866901   -0.326551 H        1 UNL1     0.2101
     49 H         -2.01577   0.955605   -0.908554 H        1 UNL1     0.2100
     50 H         -2.704577   -3.307433   -1.186851 H        1 UNL1     0.2102
@<TRIPOS>BOND
     1     1     2    1
     2     1     6    1
     3     2     3    1
     4     3     4    1
     5     3    29    1
     6     3    33    1
     7     4     5    1
     8     5     6    1
     9     5     7    1
    10     5    35    1
    11     7     8    1
    12     8     9   ar
    13     8    13   ar
    14     9    10   ar
    15     9    36    1
    16    10    11   ar
    17    10    26    1
    18    11    12   ar
    19    11    14    1
    20    12    13   ar
    21    12    17    1
    22    13    37    1
    23    14    15    1
    24    14    25    2
    25    15    16    1
    26    15    38    1
    27    15    39    1
    28    16    17    1
    29    16    18    1
    30    16    40    1
    31    18    19   ar
    32    18    23   ar
    33    19    20   ar
    34    19    41    1
    35    20    21   ar
    36    20    42    1
    37    21    22   ar
    38    21    24    1
    39    22    23   ar
    40    22    43    1
    41    23    44    1
    42    24    45    1
    43    26    46    1
    44    27    47    1
    45    28    48    1
    46    29    49    1
    47    30    50    1
    48     1    31    1
    49     1    27    1
    50     2    32    1
    51     2    28    1
    52     4    34    1
    53     4    30    1
