@<TRIPOS>MOLECULE
*****
 50 53 0 0 0
SMALL
GASTEIGER

@<TRIPOS>ATOM
     1 C         -0.163801   0.913439   1.977272 C.3        1 UNL1     0.1889
     2 C         0.352839   -0.194465   1.020416 C.3        1 UNL1     0.1342
     3 C         -0.040717   -1.624032   1.422805 C.3        1 UNL1     0.1174
     4 C         -0.082196   -1.823424   2.93992 C.3        1 UNL1     0.1456
     5 C         -0.830297   -0.689248   3.664042 C.3        1 UNL1     0.2326
     6 O         -0.229592   0.565719   3.352465 O.3        1 UNL1     -0.3076
     7 O         -2.252081   -0.706832   3.441466 O.3        1 UNL1     -0.4605
     8 C         -3.03432   -0.237536   4.481365 C.ar        1 UNL1     0.1310
     9 C         -2.877014   -0.575025   5.829941 C.ar        1 UNL1     0.0226
     10 C         -3.711696   -0.032044   6.814004 C.ar        1 UNL1     0.1343
     11 C         -4.709685   0.880907   6.475805 C.ar        1 UNL1     0.1007
     12 C         -4.902968   1.194145   5.127729 C.ar        1 UNL1     0.1389
     13 C         -4.065276   0.646012   4.138157 C.ar        1 UNL1     0.0229
     14 C         -5.565038   1.549106   7.48379 C.2        1 UNL1     0.1740
     15 C         -6.428697   2.662118   6.967218 C.3        1 UNL1     0.0520
     16 C         -6.989561   2.248227   5.613673 C.3        1 UNL1     0.1322
     17 O         -5.923259   1.99641   4.672048 O.3        1 UNL1     -0.4828
     18 C         -8.039307   1.137327   5.695272 C.ar        1 UNL1     -0.0067
     19 C         -7.93252   0.019591   4.84235 C.ar        1 UNL1     -0.0516
     20 C         -8.901152   -0.991087   4.858037 C.ar        1 UNL1     -0.0198
     21 C         -9.98275   -0.89232   5.714903 C.ar        1 UNL1     0.1169
     22 C         -10.098043   0.179643   6.59037 C.ar        1 UNL1     -0.0198
     23 C         -9.119885   1.18127   6.587917 C.ar        1 UNL1     -0.0516
     24 O         -10.925815   -1.876935   5.675373 O.3        1 UNL1     -0.5068
     25 O         -5.530163   1.284178   8.682574 O.2        1 UNL1     -0.2917
     26 O         -3.506487   -0.402961   8.110883 O.3        1 UNL1     -0.5058
     27 O         -1.363143   1.528615   1.534637 O.3        1 UNL1     -0.3648
     28 O         1.791139   -0.138107   0.991752 O.3        1 UNL1     -0.3841
     29 O         -1.255321   -2.015598   0.77973 O.3        1 UNL1     -0.3863
     30 O         1.268742   -1.885845   3.446635 O.3        1 UNL1     -0.3829
     31 H         0.577817   1.719323   1.952122 H        1 UNL1     0.0937
     32 H         0.0   0.0   0.0 H        1 UNL1     0.0671
     33 H         0.728394   -2.30572   1.033587 H        1 UNL1     0.0649
     34 H         -0.558552   -2.780822   3.178405 H        1 UNL1     0.0683
     35 H         -0.636161   -0.880673   4.726843 H        1 UNL1     0.1085
     36 H         -2.084329   -1.235608   6.163712 H        1 UNL1     0.0691
     37 H         -4.237213   0.904994   3.095632 H        1 UNL1     0.0691
     38 H         -5.800422   3.554791   6.878167 H        1 UNL1     0.0385
     39 H         -7.218843   2.871314   7.696386 H        1 UNL1     0.0385
     40 H         -7.518859   3.118578   5.202754 H        1 UNL1     0.0789
     41 H         -7.097836   -0.076779   4.154117 H        1 UNL1     0.0623
     42 H         -8.813858   -1.842101   4.187093 H        1 UNL1     0.0654
     43 H         -10.933087   0.259364   7.276121 H        1 UNL1     0.0654
     44 H         -9.236221   1.998998   7.292638 H        1 UNL1     0.0623
     45 H         -11.307006   -1.900844   4.782715 H        1 UNL1     0.2921
     46 H         -3.353575   0.387064   8.653 H        1 UNL1     0.2922
     47 H         -1.246885   1.886039   0.643238 H        1 UNL1     0.2126
     48 H         2.02966   0.743326   0.645463 H        1 UNL1     0.2101
     49 H         -1.103655   -2.126868   -0.172326 H        1 UNL1     0.2100
     50 H         1.689418   -2.693264   3.084946 H        1 UNL1     0.2102
@<TRIPOS>BOND
     1     1     2    1
     2     1     6    1
     3     2     3    1
     4     3     4    1
     5     3    29    1
     6     3    33    1
     7     4     5    1
     8     5     6    1
     9     5     7    1
    10     5    35    1
    11     7     8    1
    12     8     9   ar
    13     8    13   ar
    14     9    10   ar
    15     9    36    1
    16    10    11   ar
    17    10    26    1
    18    11    12   ar
    19    11    14    1
    20    12    13   ar
    21    12    17    1
    22    13    37    1
    23    14    15    1
    24    14    25    2
    25    15    16    1
    26    15    38    1
    27    15    39    1
    28    16    17    1
    29    16    18    1
    30    16    40    1
    31    18    19   ar
    32    18    23   ar
    33    19    20   ar
    34    19    41    1
    35    20    21   ar
    36    20    42    1
    37    21    22   ar
    38    21    24    1
    39    22    23   ar
    40    22    43    1
    41    23    44    1
    42    24    45    1
    43    26    46    1
    44    27    47    1
    45    28    48    1
    46    29    49    1
    47    30    50    1
    48     1    31    1
    49     1    27    1
    50     2    32    1
    51     2    28    1
    52     4    34    1
    53     4    30    1
