@<TRIPOS>MOLECULE
*****
 50 53 0 0 0
SMALL
GASTEIGER

@<TRIPOS>ATOM
     1 C         -0.33265   -1.332463   1.698438 C.3        1 UNL1     0.1889
     2 C         -0.463401   -0.975421   0.193324 C.3        1 UNL1     0.1342
     3 C         -1.904453   -0.959951   -0.339211 C.3        1 UNL1     0.1174
     4 C         -2.791588   -2.020015   0.31834 C.3        1 UNL1     0.1456
     5 C         -2.639333   -2.049557   1.850107 C.3        1 UNL1     0.2326
     6 O         -1.274517   -2.269998   2.198747 O.3        1 UNL1     -0.3076
     7 O         -3.212762   -0.903627   2.505352 O.3        1 UNL1     -0.4605
     8 C         -3.722389   -1.121952   3.772688 C.ar        1 UNL1     0.1310
     9 C         -4.539838   -2.195031   4.143605 C.ar        1 UNL1     0.0226
     10 C         -4.992614   -2.338485   5.46054 C.ar        1 UNL1     0.1343
     11 C         -4.619015   -1.424419   6.44479 C.ar        1 UNL1     0.1007
     12 C         -3.836731   -0.326212   6.077698 C.ar        1 UNL1     0.1389
     13 C         -3.383773   -0.180754   4.752895 C.ar        1 UNL1     0.0229
     14 C         -4.999467   -1.573692   7.868562 C.2        1 UNL1     0.1740
     15 C         -4.329221   -0.628783   8.822222 C.3        1 UNL1     0.0520
     16 C         -4.258572   0.744896   8.169557 C.3        1 UNL1     0.1322
     17 O         -3.500381   0.690538   6.941037 O.3        1 UNL1     -0.4828
     18 C         -5.617082   1.439162   8.046392 C.ar        1 UNL1     -0.0067
     19 C         -5.994694   2.008207   6.812775 C.ar        1 UNL1     -0.0516
     20 C         -7.209229   2.6915   6.678692 C.ar        1 UNL1     -0.0198
     21 C         -8.049652   2.818702   7.770175 C.ar        1 UNL1     0.1169
     22 C         -7.720823   2.240384   8.989297 C.ar        1 UNL1     -0.0198
     23 C         -6.514842   1.541169   9.11878 C.ar        1 UNL1     -0.0516
     24 O         -9.206577   3.523533   7.611617 O.3        1 UNL1     -0.5068
     25 O         -5.749126   -2.455669   8.279187 O.2        1 UNL1     -0.2917
     26 O         -5.788035   -3.406722   5.756785 O.3        1 UNL1     -0.5058
     27 O         -0.225759   -0.196575   2.541717 O.3        1 UNL1     -0.3648
     28 O         0.265749   -1.952616   -0.572272 O.3        1 UNL1     -0.3841
     29 O         -2.460454   0.354056   -0.259336 O.3        1 UNL1     -0.3863
     30 O         -2.44566   -3.319799   -0.207574 O.3        1 UNL1     -0.3829
     31 H         0.627518   -1.846668   1.8157 H        1 UNL1     0.0937
     32 H         0.0   0.0   0.0 H        1 UNL1     0.0671
     33 H         -1.868167   -1.196707   -1.411755 H        1 UNL1     0.0649
     34 H         -3.841631   -1.839879   0.062682 H        1 UNL1     0.0683
     35 H         -3.194874   -2.945633   2.153917 H        1 UNL1     0.1085
     36 H         -4.819347   -2.969501   3.437778 H        1 UNL1     0.0691
     37 H         -2.776838   0.683713   4.492473 H        1 UNL1     0.0691
     38 H         -3.327255   -1.020599   9.027336 H        1 UNL1     0.0385
     39 H         -4.889102   -0.611663   9.763508 H        1 UNL1     0.0385
     40 H         -3.662743   1.387614   8.831691 H        1 UNL1     0.0789
     41 H         -5.348332   1.930008   5.943436 H        1 UNL1     0.0623
     42 H         -7.483694   3.13617   5.725304 H        1 UNL1     0.0654
     43 H         -8.378576   2.321029   9.846483 H        1 UNL1     0.0654
     44 H         -6.294821   1.093019   10.082936 H        1 UNL1     0.0623
     45 H         -8.979354   4.433581   7.36082 H        1 UNL1     0.2921
     46 H         -5.384535   -3.921669   6.473325 H        1 UNL1     0.2922
     47 H         0.517688   0.357102   2.264972 H        1 UNL1     0.2126
     48 H         1.199807   -1.884613   -0.295428 H        1 UNL1     0.2101
     49 H         -2.021368   0.937599   -0.898456 H        1 UNL1     0.2100
     50 H         -2.679349   -3.33209   -1.158863 H        1 UNL1     0.2102
@<TRIPOS>BOND
     1     1     2    1
     2     1     6    1
     3     2     3    1
     4     3     4    1
     5     3    29    1
     6     3    33    1
     7     4     5    1
     8     5     6    1
     9     5     7    1
    10     5    35    1
    11     7     8    1
    12     8     9   ar
    13     8    13   ar
    14     9    10   ar
    15     9    36    1
    16    10    11   ar
    17    10    26    1
    18    11    12   ar
    19    11    14    1
    20    12    13   ar
    21    12    17    1
    22    13    37    1
    23    14    15    1
    24    14    25    2
    25    15    16    1
    26    15    38    1
    27    15    39    1
    28    16    17    1
    29    16    18    1
    30    16    40    1
    31    18    19   ar
    32    18    23   ar
    33    19    20   ar
    34    19    41    1
    35    20    21   ar
    36    20    42    1
    37    21    22   ar
    38    21    24    1
    39    22    23   ar
    40    22    43    1
    41    23    44    1
    42    24    45    1
    43    26    46    1
    44    27    47    1
    45    28    48    1
    46    29    49    1
    47    30    50    1
    48     1    31    1
    49     1    27    1
    50     2    32    1
    51     2    28    1
    52     4    34    1
    53     4    30    1
