@<TRIPOS>MOLECULE
*****
 50 53 0 0 0
SMALL
GASTEIGER

@<TRIPOS>ATOM
     1 C         -0.342222   -1.370897   1.665632 C.3        1 UNL1     0.1889
     2 C         -0.474393   -0.974384   0.170557 C.3        1 UNL1     0.1342
     3 C         -1.917172   -0.92822   -0.355485 C.3        1 UNL1     0.1174
     4 C         -2.814517   -1.99388   0.278756 C.3        1 UNL1     0.1456
     5 C         -2.656793   -2.063952   1.80865 C.3        1 UNL1     0.2326
     6 O         -1.293416   -2.309446   2.145999 O.3        1 UNL1     -0.3076
     7 O         -3.213856   -0.928174   2.494952 O.3        1 UNL1     -0.4605
     8 C         -3.731483   -1.174598   3.753867 C.ar        1 UNL1     0.1310
     9 C         -4.567582   -2.24442   4.091089 C.ar        1 UNL1     0.0226
     10 C         -5.027326   -2.418373   5.401921 C.ar        1 UNL1     0.1343
     11 C         -4.642435   -1.539303   6.413323 C.ar        1 UNL1     0.1007
     12 C         -3.841101   -0.443902   6.080541 C.ar        1 UNL1     0.1389
     13 C         -3.381115   -0.267722   4.761904 C.ar        1 UNL1     0.0229
     14 C         -5.03034   -1.723336   7.831003 C.2        1 UNL1     0.1740
     15 C         -4.348233   -0.817407   8.813638 C.3        1 UNL1     0.0520
     16 C         -4.25294   0.573185   8.20116 C.3        1 UNL1     0.1322
     17 O         -3.491354   0.541891   6.973936 O.3        1 UNL1     -0.4828
     18 C         -5.599539   1.292831   8.093899 C.ar        1 UNL1     -0.0067
     19 C         -5.956966   1.916126   6.880654 C.ar        1 UNL1     -0.0516
     20 C         -7.159678   2.623003   6.7633 C.ar        1 UNL1     -0.0198
     21 C         -8.008192   2.719899   7.851631 C.ar        1 UNL1     0.1169
     22 C         -7.699545   2.088672   9.0496 C.ar        1 UNL1     -0.0198
     23 C         -6.505585   1.366203   9.16165 C.ar        1 UNL1     -0.0516
     24 O         -9.152747   3.448367   7.711179 O.3        1 UNL1     -0.5068
     25 O         -5.795694   -2.604415   8.213649 O.2        1 UNL1     -0.2917
     26 O         -5.841054   -3.481563   5.664711 O.3        1 UNL1     -0.5058
     27 O         -0.218425   -0.258048   2.536855 O.3        1 UNL1     -0.3648
     28 O         0.239994   -1.940565   -0.622444 O.3        1 UNL1     -0.3841
     29 O         -2.456975   0.389905   -0.240195 O.3        1 UNL1     -0.3863
     30 O         -2.486299   -3.283999   -0.281205 O.3        1 UNL1     -0.3829
     31 H         0.612114   -1.89935   1.765931 H        1 UNL1     0.0937
     32 H         0.0   0.0   0.0 H        1 UNL1     0.0671
     33 H         -1.887832   -1.138206   -1.433801 H        1 UNL1     0.0649
     34 H         -3.863277   -1.794791   0.032046 H        1 UNL1     0.0683
     35 H         -3.22194   -2.960712   2.092038 H        1 UNL1     0.1085
     36 H         -4.85712   -2.993539   3.362318 H        1 UNL1     0.0691
     37 H         -2.759286   0.593859   4.52845 H        1 UNL1     0.0691
     38 H         -3.353506   -1.231303   9.010448 H        1 UNL1     0.0385
     39 H         -4.911117   -0.81829   9.753287 H        1 UNL1     0.0385
     40 H         -3.64911   1.186713   8.88343 H        1 UNL1     0.0789
     41 H         -5.303806   1.862402   6.014545 H        1 UNL1     0.0623
     42 H         -7.418472   3.109325   5.826002 H        1 UNL1     0.0654
     43 H         -8.363945   2.145499   9.903563 H        1 UNL1     0.0654
     44 H         -6.30138   0.876824   10.109095 H        1 UNL1     0.0623
     45 H         -8.909061   4.369323   7.52363 H        1 UNL1     0.2921
     46 H         -5.449217   -4.02273   6.368283 H        1 UNL1     0.2922
     47 H         0.52467   0.298686   2.265347 H        1 UNL1     0.2126
     48 H         1.17988   -1.872858   -0.366002 H        1 UNL1     0.2101
     49 H         -2.0191   0.982264   -0.871994 H        1 UNL1     0.2100
     50 H         -2.72898   -3.271338   -1.230235 H        1 UNL1     0.2102
@<TRIPOS>BOND
     1     1     2    1
     2     1     6    1
     3     2     3    1
     4     3     4    1
     5     3    29    1
     6     3    33    1
     7     4     5    1
     8     5     6    1
     9     5     7    1
    10     5    35    1
    11     7     8    1
    12     8     9   ar
    13     8    13   ar
    14     9    10   ar
    15     9    36    1
    16    10    11   ar
    17    10    26    1
    18    11    12   ar
    19    11    14    1
    20    12    13   ar
    21    12    17    1
    22    13    37    1
    23    14    15    1
    24    14    25    2
    25    15    16    1
    26    15    38    1
    27    15    39    1
    28    16    17    1
    29    16    18    1
    30    16    40    1
    31    18    19   ar
    32    18    23   ar
    33    19    20   ar
    34    19    41    1
    35    20    21   ar
    36    20    42    1
    37    21    22   ar
    38    21    24    1
    39    22    23   ar
    40    22    43    1
    41    23    44    1
    42    24    45    1
    43    26    46    1
    44    27    47    1
    45    28    48    1
    46    29    49    1
    47    30    50    1
    48     1    31    1
    49     1    27    1
    50     2    32    1
    51     2    28    1
    52     4    34    1
    53     4    30    1
