@<TRIPOS>MOLECULE
*****
 50 53 0 0 0
SMALL
GASTEIGER

@<TRIPOS>ATOM
     1 C         -0.33043   -1.356132   1.680038 C.3        1 UNL1     0.1889
     2 C         -0.466056   -0.976542   0.180885 C.3        1 UNL1     0.1342
     3 C         -1.909205   -0.948231   -0.345408 C.3        1 UNL1     0.1174
     4 C         -2.797395   -2.014759   0.300157 C.3        1 UNL1     0.1456
     5 C         -2.638998   -2.067353   1.830683 C.3        1 UNL1     0.2326
     6 O         -1.273559   -2.297642   2.170405 O.3        1 UNL1     -0.3076
     7 O         -3.205692   -0.929196   2.505056 O.3        1 UNL1     -0.4605
     8 C         -3.721131   -1.166741   3.766572 C.ar        1 UNL1     0.1310
     9 C         -4.548058   -2.24004   4.11517 C.ar        1 UNL1     0.0226
     10 C         -5.006232   -2.404081   5.427828 C.ar        1 UNL1     0.1343
     11 C         -4.628799   -1.511148   6.429854 C.ar        1 UNL1     0.1007
     12 C         -3.836854   -0.412522   6.08543 C.ar        1 UNL1     0.1389
     13 C         -3.378457   -0.246335   4.764944 C.ar        1 UNL1     0.0229
     14 C         -5.015046   -1.683529   7.84945 C.2        1 UNL1     0.1740
     15 C         -4.340638   -0.761509   8.822385 C.3        1 UNL1     0.0520
     16 C         -4.25724   0.623312   8.19527 C.3        1 UNL1     0.1322
     17 O         -3.49548   0.58558   6.968336 O.3        1 UNL1     -0.4828
     18 C         -5.609934   1.330278   8.080622 C.ar        1 UNL1     -0.0067
     19 C         -5.972728   1.93768   6.860927 C.ar        1 UNL1     -0.0516
     20 C         -7.181431   2.632999   6.736301 C.ar        1 UNL1     -0.0198
     21 C         -8.030682   2.734122   7.823671 C.ar        1 UNL1     0.1169
     22 C         -7.7166   2.118212   9.028182 C.ar        1 UNL1     -0.0198
     23 C         -6.516516   1.407173   9.14767 C.ar        1 UNL1     -0.0516
     24 O         -9.181416   3.451283   7.675712 O.3        1 UNL1     -0.5068
     25 O         -5.772838   -2.56702   8.24147 O.2        1 UNL1     -0.2917
     26 O         -5.81085   -3.471342   5.701926 O.3        1 UNL1     -0.5058
     27 O         -0.216083   -0.233147   2.539465 O.3        1 UNL1     -0.3648
     28 O         0.256503   -1.944901   -0.60199 O.3        1 UNL1     -0.3841
     29 O         -2.460224   0.366385   -0.24394 O.3        1 UNL1     -0.3863
     30 O         -2.458216   -3.307863   -0.246221 O.3        1 UNL1     -0.3829
     31 H         0.628383   -1.875341   1.785765 H        1 UNL1     0.0937
     32 H         0.0   0.0   0.0 H        1 UNL1     0.0671
     33 H         -1.878132   -1.169313   -1.421455 H        1 UNL1     0.0649
     34 H         -3.847828   -1.827232   0.051513 H        1 UNL1     0.0683
     35 H         -3.196462   -2.965863   2.123587 H        1 UNL1     0.1085
     36 H         -4.831236   -2.999241   3.394376 H        1 UNL1     0.0691
     37 H         -2.764011   0.618008   4.522333 H        1 UNL1     0.0691
     38 H         -3.342406   -1.16481   9.023404 H        1 UNL1     0.0385
     39 H         -4.903444   -0.757287   9.762071 H        1 UNL1     0.0385
     40 H         -3.658629   1.249124   8.87095 H        1 UNL1     0.0789
     41 H         -5.319178   1.880401   5.995338 H        1 UNL1     0.0623
     42 H         -7.444412   3.10719   5.793965 H        1 UNL1     0.0654
     43 H         -8.381415   2.17837   9.881594 H        1 UNL1     0.0654
     44 H         -6.308094   0.929566   10.100191 H        1 UNL1     0.0623
     45 H         -8.945603   4.372255   7.478431 H        1 UNL1     0.2921
     46 H         -5.414374   -4.001701   6.411106 H        1 UNL1     0.2922
     47 H         0.51531   0.332751   2.255417 H        1 UNL1     0.2126
     48 H         1.197317   -1.858661   -0.354677 H        1 UNL1     0.2101
     49 H         -2.02745   0.955765   -0.88201 H        1 UNL1     0.2100
     50 H         -2.701046   -3.307276   -1.195297 H        1 UNL1     0.2102
@<TRIPOS>BOND
     1     1     2    1
     2     1     6    1
     3     2     3    1
     4     3     4    1
     5     3    29    1
     6     3    33    1
     7     4     5    1
     8     5     6    1
     9     5     7    1
    10     5    35    1
    11     7     8    1
    12     8     9   ar
    13     8    13   ar
    14     9    10   ar
    15     9    36    1
    16    10    11   ar
    17    10    26    1
    18    11    12   ar
    19    11    14    1
    20    12    13   ar
    21    12    17    1
    22    13    37    1
    23    14    15    1
    24    14    25    2
    25    15    16    1
    26    15    38    1
    27    15    39    1
    28    16    17    1
    29    16    18    1
    30    16    40    1
    31    18    19   ar
    32    18    23   ar
    33    19    20   ar
    34    19    41    1
    35    20    21   ar
    36    20    42    1
    37    21    22   ar
    38    21    24    1
    39    22    23   ar
    40    22    43    1
    41    23    44    1
    42    24    45    1
    43    26    46    1
    44    27    47    1
    45    28    48    1
    46    29    49    1
    47    30    50    1
    48     1    31    1
    49     1    27    1
    50     2    32    1
    51     2    28    1
    52     4    34    1
    53     4    30    1
