@<TRIPOS>MOLECULE
*****
 50 53 0 0 0
SMALL
GASTEIGER

@<TRIPOS>ATOM
     1 C         1.827994   -0.468178   1.100024 C.3        1 UNL1     0.1889
     2 C         0.293797   -0.242077   1.028904 C.3        1 UNL1     0.1342
     3 C         -0.238066   0.848285   1.971611 C.3        1 UNL1     0.1174
     4 C         0.526072   0.911871   3.296438 C.3        1 UNL1     0.1456
     5 C         2.052632   0.876955   3.099566 C.3        1 UNL1     0.2326
     6 O         2.422946   -0.295537   2.377765 O.3        1 UNL1     -0.3076
     7 O         2.58455   2.085507   2.52704 O.3        1 UNL1     -0.4605
     8 C         3.090145   1.977084   1.244017 C.ar        1 UNL1     0.1310
     9 C         3.080336   0.815278   0.464652 C.ar        1 UNL1     0.0226
     10 C         3.602912   0.810592   -0.834115 C.ar        1 UNL1     0.1343
     11 C         4.126914   1.974838   -1.394289 C.ar        1 UNL1     0.1007
     12 C         4.179556   3.130917   -0.61103 C.ar        1 UNL1     0.1389
     13 C         3.65645   3.134696   0.69579 C.ar        1 UNL1     0.0229
     14 C         4.615452   2.047407   -2.790791 C.2        1 UNL1     0.1740
     15 C         4.934657   3.42368   -3.296289 C.3        1 UNL1     0.0520
     16 C         5.626502   4.19757   -2.182556 C.3        1 UNL1     0.1322
     17 O         4.771097   4.302474   -1.023096 O.3        1 UNL1     -0.4828
     18 C         7.0454   3.708628   -1.881911 C.ar        1 UNL1     -0.0067
     19 C         8.064971   3.914018   -2.834016 C.ar        1 UNL1     -0.0516
     20 C         9.362413   3.437608   -2.611215 C.ar        1 UNL1     -0.0198
     21 C         9.650577   2.749434   -1.446224 C.ar        1 UNL1     0.1169
     22 C         8.676068   2.560622   -0.474873 C.ar        1 UNL1     -0.0198
     23 C         7.383147   3.05303   -0.689219 C.ar        1 UNL1     -0.0516
     24 O         10.915751   2.267336   -1.280941 O.3        1 UNL1     -0.5068
     25 O         4.687222   1.071868   -3.533527 O.2        1 UNL1     -0.2917
     26 O         3.564034   -0.355624   -1.54123 O.3        1 UNL1     -0.5058
     27 O         2.54826   0.219689   0.089656 O.3        1 UNL1     -0.3648
     28 O         -0.365402   -1.472365   1.381828 O.3        1 UNL1     -0.3841
     29 O         -0.295901   2.110943   1.304916 O.3        1 UNL1     -0.3863
     30 O         0.138726   -0.208736   4.120994 O.3        1 UNL1     -0.3829
     31 H         1.998654   -1.527497   0.879124 H        1 UNL1     0.0937
     32 H         0.0   0.0   0.0 H        1 UNL1     0.0671
     33 H         -1.280055   0.60009   2.217332 H        1 UNL1     0.0649
     34 H         0.252571   1.82141   3.84264 H        1 UNL1     0.0683
     35 H         2.447997   0.763483   4.116763 H        1 UNL1     0.1085
     36 H         2.636564   -0.10743   0.822137 H        1 UNL1     0.0691
     37 H         3.710505   4.047356   1.285386 H        1 UNL1     0.0691
     38 H         3.989956   3.899634   -3.580075 H        1 UNL1     0.0385
     39 H         5.558818   3.341041   -4.1926 H        1 UNL1     0.0385
     40 H         5.74363   5.232363   -2.531849 H        1 UNL1     0.0789
     41 H         7.861984   4.443205   -3.760519 H        1 UNL1     0.0623
     42 H         10.137015   3.591933   -3.358335 H        1 UNL1     0.0654
     43 H         8.894704   2.036243   0.447697 H        1 UNL1     0.0654
     44 H         6.649359   2.89672   0.095616 H        1 UNL1     0.0623
     45 H         11.170789   1.792133   -2.088316 H        1 UNL1     0.2921
     46 H         3.743628   -0.172706   -2.477018 H        1 UNL1     0.2922
     47 H         2.778065   1.11023   0.389632 H        1 UNL1     0.2126
     48 H         -1.112785   -1.232522   1.962884 H        1 UNL1     0.2101
     49 H         0.536679   2.273736   0.833638 H        1 UNL1     0.2100
     50 H         0.852347   -0.878277   4.074374 H        1 UNL1     0.2102
@<TRIPOS>BOND
     1     1     2    1
     2     1     6    1
     3     2     3    1
     4     3     4    1
     5     3    29    1
     6     3    33    1
     7     4     5    1
     8     5     6    1
     9     5     7    1
    10     5    35    1
    11     7     8    1
    12     8     9   ar
    13     8    13   ar
    14     9    10   ar
    15     9    36    1
    16    10    11   ar
    17    10    26    1
    18    11    12   ar
    19    11    14    1
    20    12    13   ar
    21    12    17    1
    22    13    37    1
    23    14    15    1
    24    14    25    2
    25    15    16    1
    26    15    38    1
    27    15    39    1
    28    16    17    1
    29    16    18    1
    30    16    40    1
    31    18    19   ar
    32    18    23   ar
    33    19    20   ar
    34    19    41    1
    35    20    21   ar
    36    20    42    1
    37    21    22   ar
    38    21    24    1
    39    22    23   ar
    40    22    43    1
    41    23    44    1
    42    24    45    1
    43    26    46    1
    44    27    47    1
    45    28    48    1
    46    29    49    1
    47    30    50    1
    48     1    31    1
    49     1    27    1
    50     2    32    1
    51     2    28    1
    52     4    34    1
    53     4    30    1
