@<TRIPOS>MOLECULE
*****
 50 53 0 0 0
SMALL
GASTEIGER

@<TRIPOS>ATOM
     1 C         -0.351363   -1.339425   1.689168 C.3        1 UNL1     0.1889
     2 C         -0.471066   -0.973301   0.185318 C.3        1 UNL1     0.1342
     3 C         -1.908902   -0.945169   -0.355332 C.3        1 UNL1     0.1174
     4 C         -2.80692   -2.002773   0.291318 C.3        1 UNL1     0.1456
     5 C         -2.66366   -2.0417   1.823742 C.3        1 UNL1     0.2326
     6 O         -1.302383   -2.273276   2.178941 O.3        1 UNL1     -0.3076
     7 O         -3.233103   -0.895505   2.481992 O.3        1 UNL1     -0.4605
     8 C         -3.761634   -1.119672   3.740536 C.ar        1 UNL1     0.1310
     9 C         -4.595514   -2.186997   4.090908 C.ar        1 UNL1     0.0226
     10 C         -5.067037   -2.337377   5.400471 C.ar        1 UNL1     0.1343
     11 C         -4.696425   -1.436432   6.397861 C.ar        1 UNL1     0.1007
     12 C         -3.897481   -0.343629   6.051087 C.ar        1 UNL1     0.1389
     13 C         -3.425652   -0.191176   4.733678 C.ar        1 UNL1     0.0229
     14 C         -5.097096   -1.594394   7.815135 C.2        1 UNL1     0.1740
     15 C         -4.429144   -0.6656   8.786078 C.3        1 UNL1     0.0520
     16 C         -4.33499   0.713072   8.147051 C.3        1 UNL1     0.1322
     17 O         -3.56141   0.661494   6.928042 O.3        1 UNL1     -0.4828
     18 C         -5.684126   1.423346   8.012631 C.ar        1 UNL1     -0.0067
     19 C         -6.032952   2.020599   6.783882 C.ar        1 UNL1     -0.0516
     20 C         -7.238046   2.718665   6.641003 C.ar        1 UNL1     -0.0198
     21 C         -8.097537   2.832623   7.719018 C.ar        1 UNL1     0.1169
     22 C         -7.7973   2.22688   8.932184 C.ar        1 UNL1     -0.0198
     23 C         -6.600826   1.513075   9.069987 C.ar        1 UNL1     -0.0516
     24 O         -9.244364   3.552125   7.553174 O.3        1 UNL1     -0.5068
     25 O         -5.861634   -2.471743   8.20785 O.2        1 UNL1     -0.2917
     26 O         -5.87786   -3.399427   5.676513 O.3        1 UNL1     -0.5058
     27 O         -0.24166   -0.208904   2.53927 O.3        1 UNL1     -0.3648
     28 O         0.255862   -1.95122   -0.581465 O.3        1 UNL1     -0.3841
     29 O         -2.456483   0.372117   -0.271411 O.3        1 UNL1     -0.3863
     30 O         -2.466748   -3.301981   -0.239748 O.3        1 UNL1     -0.3829
     31 H         0.604629   -1.860751   1.809076 H        1 UNL1     0.0937
     32 H         0.0   0.0   0.0 H        1 UNL1     0.0671
     33 H         -1.868058   -1.176311   -1.428936 H        1 UNL1     0.0649
     34 H         -3.854241   -1.814139   0.03067 H        1 UNL1     0.0683
     35 H         -3.226962   -2.935638   2.119453 H        1 UNL1     0.1085
     36 H         -4.874175   -2.951918   3.374414 H        1 UNL1     0.0691
     37 H         -2.805976   0.668877   4.48913 H        1 UNL1     0.0691
     38 H         -3.434279   -1.070269   9.000585 H        1 UNL1     0.0385
     39 H         -5.001086   -0.65084   9.720125 H        1 UNL1     0.0385
     40 H         -3.740918   1.343165   8.822758 H        1 UNL1     0.0789
     41 H         -5.371173   1.953176   5.925306 H        1 UNL1     0.0623
     42 H         -7.490221   3.184958   5.691798 H        1 UNL1     0.0654
     43 H         -8.470216   2.297106   9.778448 H        1 UNL1     0.0654
     44 H         -6.40332   1.043638   10.028874 H        1 UNL1     0.0623
     45 H         -9.003555   4.470457   7.349719 H        1 UNL1     0.2921
     46 H         -5.490109   -3.924481   6.394412 H        1 UNL1     0.2922
     47 H         0.494362   0.351954   2.25719 H        1 UNL1     0.2126
     48 H         1.194498   -1.865755   -0.325751 H        1 UNL1     0.2101
     49 H         -2.015527   0.954148   -0.910623 H        1 UNL1     0.2100
     50 H         -2.700292   -3.309397   -1.191124 H        1 UNL1     0.2102
@<TRIPOS>BOND
     1     1     2    1
     2     1     6    1
     3     2     3    1
     4     3     4    1
     5     3    29    1
     6     3    33    1
     7     4     5    1
     8     5     6    1
     9     5     7    1
    10     5    35    1
    11     7     8    1
    12     8     9   ar
    13     8    13   ar
    14     9    10   ar
    15     9    36    1
    16    10    11   ar
    17    10    26    1
    18    11    12   ar
    19    11    14    1
    20    12    13   ar
    21    12    17    1
    22    13    37    1
    23    14    15    1
    24    14    25    2
    25    15    16    1
    26    15    38    1
    27    15    39    1
    28    16    17    1
    29    16    18    1
    30    16    40    1
    31    18    19   ar
    32    18    23   ar
    33    19    20   ar
    34    19    41    1
    35    20    21   ar
    36    20    42    1
    37    21    22   ar
    38    21    24    1
    39    22    23   ar
    40    22    43    1
    41    23    44    1
    42    24    45    1
    43    26    46    1
    44    27    47    1
    45    28    48    1
    46    29    49    1
    47    30    50    1
    48     1    31    1
    49     1    27    1
    50     2    32    1
    51     2    28    1
    52     4    34    1
    53     4    30    1
