@<TRIPOS>MOLECULE
*****
 50 53 0 0 0
SMALL
GASTEIGER

@<TRIPOS>ATOM
     1 C         -0.354626   0.642013   -2.057393 C.3        1 UNL1     0.1889
     2 C         -0.768309   0.54286   -0.564417 C.3        1 UNL1     0.1342
     3 C         -2.132328   -0.120471   -0.319653 C.3        1 UNL1     0.1174
     4 C         -3.150027   0.191724   -1.419625 C.3        1 UNL1     0.1456
     5 C         -2.562321   0.023024   -2.832603 C.3        1 UNL1     0.2326
     6 O         -1.411469   0.85125   -2.982433 O.3        1 UNL1     -0.3076
     7 O         -2.322685   -1.349396   -3.193655 O.3        1 UNL1     -0.4605
     8 C         -3.446962   -2.139161   -3.354279 C.ar        1 UNL1     0.1310
     9 C         -4.572633   -2.124987   -2.523638 C.ar        1 UNL1     0.0226
     10 C         -5.671834   -2.953155   -2.780147 C.ar        1 UNL1     0.1343
     11 C         -5.681832   -3.79921   -3.888267 C.ar        1 UNL1     0.1007
     12 C         -4.546795   -3.8521   -4.701703 C.ar        1 UNL1     0.1389
     13 C         -3.440614   -3.021209   -4.442061 C.ar        1 UNL1     0.0229
     14 C         -6.849852   -4.633602   -4.253883 C.2        1 UNL1     0.1740
     15 C         -6.772462   -5.308257   -5.591941 C.3        1 UNL1     0.0520
     16 C         -5.351746   -5.817071   -5.79351 C.3        1 UNL1     0.1322
     17 O         -4.405905   -4.72576   -5.754858 O.3        1 UNL1     -0.4828
     18 C         -4.988927   -7.003053   -4.896552 C.ar        1 UNL1     -0.0067
     19 C         -4.751317   -6.785883   -3.523747 C.ar        1 UNL1     -0.0516
     20 C         -4.371312   -7.840354   -2.684909 C.ar        1 UNL1     -0.0198
     21 C         -4.218709   -9.112336   -3.207021 C.ar        1 UNL1     0.1169
     22 C         -4.478023   -9.364037   -4.548007 C.ar        1 UNL1     -0.0198
     23 C         -4.875947   -8.313297   -5.383266 C.ar        1 UNL1     -0.0516
     24 O         -3.81069   -10.106836   -2.367444 O.3        1 UNL1     -0.5068
     25 O         -7.861588   -4.720348   -3.562977 O.2        1 UNL1     -0.2917
     26 O         -6.737997   -2.89209   -1.930939 O.3        1 UNL1     -0.5058
     27 O         0.508133   -0.403697   -2.475634 O.3        1 UNL1     -0.3648
     28 O         -0.835563   1.874099   -0.020372 O.3        1 UNL1     -0.3841
     29 O         -1.980146   -1.522396   -0.088181 O.3        1 UNL1     -0.3863
     30 O         -3.609553   1.552384   -1.267534 O.3        1 UNL1     -0.3829
     31 H         0.253388   1.548137   -2.154017 H        1 UNL1     0.0937
     32 H         0.0   0.0   0.0 H        1 UNL1     0.0671
     33 H         -2.540385   0.287097   0.615814 H        1 UNL1     0.0649
     34 H         -4.026812   -0.45654   -1.312847 H        1 UNL1     0.0683
     35 H         -3.337801   0.432179   -3.492226 H        1 UNL1     0.1085
     36 H         -4.649311   -1.4495   -1.678677 H        1 UNL1     0.0691
     37 H         -2.568686   -3.082195   -5.089762 H        1 UNL1     0.0691
     38 H         -7.037976   -4.566459   -6.352707 H        1 UNL1     0.0385
     39 H         -7.510937   -6.116344   -5.629724 H        1 UNL1     0.0385
     40 H         -5.287672   -6.199649   -6.821152 H        1 UNL1     0.0789
     41 H         -4.855422   -5.794936   -3.0915 H        1 UNL1     0.0623
     42 H         -4.179391   -7.657866   -1.630454 H        1 UNL1     0.0654
     43 H         -4.376197   -10.359221   -4.96412 H        1 UNL1     0.0654
     44 H         -5.080452   -8.548029   -6.423422 H        1 UNL1     0.0623
     45 H         -4.550863   -10.337777   -1.783042 H        1 UNL1     0.2921
     46 H         -6.627866   -2.140803   -1.326911 H        1 UNL1     0.2922
     47 H         0.43266   -0.538242   -3.430653 H        1 UNL1     0.2126
     48 H         -0.473891   1.824664   0.885433 H        1 UNL1     0.2101
     49 H         -2.845353   -1.959832   -0.13132 H        1 UNL1     0.2100
     50 H         -3.017963   2.000733   -0.628224 H        1 UNL1     0.2102
@<TRIPOS>BOND
     1     1     2    1
     2     1     6    1
     3     2     3    1
     4     3     4    1
     5     3    29    1
     6     3    33    1
     7     4     5    1
     8     5     6    1
     9     5     7    1
    10     5    35    1
    11     7     8    1
    12     8     9   ar
    13     8    13   ar
    14     9    10   ar
    15     9    36    1
    16    10    11   ar
    17    10    26    1
    18    11    12   ar
    19    11    14    1
    20    12    13   ar
    21    12    17    1
    22    13    37    1
    23    14    15    1
    24    14    25    2
    25    15    16    1
    26    15    38    1
    27    15    39    1
    28    16    17    1
    29    16    18    1
    30    16    40    1
    31    18    19   ar
    32    18    23   ar
    33    19    20   ar
    34    19    41    1
    35    20    21   ar
    36    20    42    1
    37    21    22   ar
    38    21    24    1
    39    22    23   ar
    40    22    43    1
    41    23    44    1
    42    24    45    1
    43    26    46    1
    44    27    47    1
    45    28    48    1
    46    29    49    1
    47    30    50    1
    48     1    31    1
    49     1    27    1
    50     2    32    1
    51     2    28    1
    52     4    34    1
    53     4    30    1
