@<TRIPOS>MOLECULE
*****
 50 53 0 0 0
SMALL
GASTEIGER

@<TRIPOS>ATOM
     1 C         1.265121   -0.251805   -1.762631 C.3        1 UNL1     0.1889
     2 C         0.799631   -0.668916   -0.341618 C.3        1 UNL1     0.1342
     3 C         1.914203   -0.698218   0.715424 C.3        1 UNL1     0.1174
     4 C         3.262086   -1.145734   0.144408 C.3        1 UNL1     0.1456
     5 C         3.606603   -0.438349   -1.178951 C.3        1 UNL1     0.2326
     6 O         2.57232   -0.663646   -2.134131 O.3        1 UNL1     -0.3076
     7 O         3.933442   0.953819   -1.016578 O.3        1 UNL1     -0.4605
     8 C         3.925835   1.71687   -2.170364 C.ar        1 UNL1     0.1310
     9 C         5.041807   1.989843   -2.968733 C.ar        1 UNL1     0.0226
     10 C         4.928625   2.761438   -4.131374 C.ar        1 UNL1     0.1343
     11 C         3.691153   3.25937   -4.537043 C.ar        1 UNL1     0.1007
     12 C         2.576814   3.027923   -3.726201 C.ar        1 UNL1     0.1389
     13 C         2.691359   2.254283   -2.55582 C.ar        1 UNL1     0.0229
     14 C         3.49962   4.00926   -5.800029 C.2        1 UNL1     0.1740
     15 C         2.074568   4.273965   -6.18824 C.3        1 UNL1     0.0520
     16 C         1.293293   4.639121   -4.933558 C.3        1 UNL1     0.1322
     17 O         1.332883   3.560892   -3.972869 O.3        1 UNL1     -0.4828
     18 C         1.65346   6.012234   -4.361225 C.ar        1 UNL1     -0.0067
     19 C         2.88483   6.18396   -3.696055 C.ar        1 UNL1     -0.0516
     20 C         3.22456   7.413772   -3.119766 C.ar        1 UNL1     -0.0198
     21 C         2.34037   8.475061   -3.195266 C.ar        1 UNL1     0.1169
     22 C         1.13474   8.346526   -3.872594 C.ar        1 UNL1     -0.0198
     23 C         0.802787   7.122187   -4.464925 C.ar        1 UNL1     -0.0516
     24 O         2.689151   9.646299   -2.589498 O.3        1 UNL1     -0.5068
     25 O         4.424241   4.334195   -6.540284 O.2        1 UNL1     -0.2917
     26 O         6.055535   2.991992   -4.865202 O.3        1 UNL1     -0.5058
     27 O         1.047239   1.120576   -2.048788 O.3        1 UNL1     -0.3648
     28 O         0.243576   -1.994875   -0.414692 O.3        1 UNL1     -0.3841
     29 O         1.992457   0.551241   1.404526 O.3        1 UNL1     -0.3863
     30 O         3.229209   -2.571031   -0.086103 O.3        1 UNL1     -0.3829
     31 H         0.618823   -0.780959   -2.471414 H        1 UNL1     0.0937
     32 H         0.0   0.0   0.0 H        1 UNL1     0.0671
     33 H         1.632201   -1.435792   1.47974 H        1 UNL1     0.0649
     34 H         4.058148   -0.957172   0.873195 H        1 UNL1     0.0683
     35 H         4.495545   -0.97072   -1.539842 H        1 UNL1     0.1085
     36 H         6.020991   1.584958   -2.737674 H        1 UNL1     0.0691
     37 H         1.80895   2.08954   -1.941241 H        1 UNL1     0.0691
     38 H         1.681048   3.360448   -6.646669 H        1 UNL1     0.0385
     39 H         2.049184   5.07153   -6.938589 H        1 UNL1     0.0385
     40 H         0.235596   4.712315   -5.220681 H        1 UNL1     0.0789
     41 H         3.592137   5.363695   -3.615228 H        1 UNL1     0.0623
     42 H         4.171918   7.530204   -2.59922 H        1 UNL1     0.0654
     43 H         0.44155   9.175559   -3.950717 H        1 UNL1     0.0654
     44 H         -0.142614   7.06046   -4.995257 H        1 UNL1     0.0623
     45 H         3.627756   9.817222   -2.769837 H        1 UNL1     0.2921
     46 H         6.03903   2.442497   -5.664699 H        1 UNL1     0.2922
     47 H         0.356507   1.477111   -1.472913 H        1 UNL1     0.2126
     48 H         -0.492299   -1.954644   -1.055475 H        1 UNL1     0.2101
     49 H         1.822874   0.417497   2.350648 H        1 UNL1     0.2100
     50 H         2.628545   -2.740558   -0.841203 H        1 UNL1     0.2102
@<TRIPOS>BOND
     1     1     2    1
     2     1     6    1
     3     2     3    1
     4     3     4    1
     5     3    29    1
     6     3    33    1
     7     4     5    1
     8     5     6    1
     9     5     7    1
    10     5    35    1
    11     7     8    1
    12     8     9   ar
    13     8    13   ar
    14     9    10   ar
    15     9    36    1
    16    10    11   ar
    17    10    26    1
    18    11    12   ar
    19    11    14    1
    20    12    13   ar
    21    12    17    1
    22    13    37    1
    23    14    15    1
    24    14    25    2
    25    15    16    1
    26    15    38    1
    27    15    39    1
    28    16    17    1
    29    16    18    1
    30    16    40    1
    31    18    19   ar
    32    18    23   ar
    33    19    20   ar
    34    19    41    1
    35    20    21   ar
    36    20    42    1
    37    21    22   ar
    38    21    24    1
    39    22    23   ar
    40    22    43    1
    41    23    44    1
    42    24    45    1
    43    26    46    1
    44    27    47    1
    45    28    48    1
    46    29    49    1
    47    30    50    1
    48     1    31    1
    49     1    27    1
    50     2    32    1
    51     2    28    1
    52     4    34    1
    53     4    30    1
