@<TRIPOS>MOLECULE
*****
 50 53 0 0 0
SMALL
GASTEIGER

@<TRIPOS>ATOM
     1 C         -0.332308   -1.328235   1.701813 C.3        1 UNL1     0.1889
     2 C         -0.462545   -0.975359   0.195673 C.3        1 UNL1     0.1342
     3 C         -1.903304   -0.962748   -0.33773 C.3        1 UNL1     0.1174
     4 C         -2.789767   -2.021926   0.322152 C.3        1 UNL1     0.1456
     5 C         -2.638367   -2.04721   1.85408 C.3        1 UNL1     0.2326
     6 O         -1.273534   -2.26536   2.204093 O.3        1 UNL1     -0.3076
     7 O         -3.21331   -0.900098   2.50592 O.3        1 UNL1     -0.4605
     8 C         -3.723026   -1.115424   3.773733 C.ar        1 UNL1     0.1310
     9 C         -4.539324   -2.188401   4.14747 C.ar        1 UNL1     0.0226
     10 C         -4.992291   -2.328651   5.464685 C.ar        1 UNL1     0.1343
     11 C         -4.620026   -1.411364   6.44644 C.ar        1 UNL1     0.1007
     12 C         -3.838923   -0.313289   6.076447 C.ar        1 UNL1     0.1389
     13 C         -3.385775   -0.171058   4.751359 C.ar        1 UNL1     0.0229
     14 C         -5.00069   -1.557045   7.870528 C.2        1 UNL1     0.1740
     15 C         -4.331806   -0.608656   8.821686 C.3        1 UNL1     0.0520
     16 C         -4.262582   0.76325   8.165149 C.3        1 UNL1     0.1322
     17 O         -3.503993   0.706294   6.936992 O.3        1 UNL1     -0.4828
     18 C         -5.621866   1.455578   8.039652 C.ar        1 UNL1     -0.0067
     19 C         -6.000986   2.01823   6.803567 C.ar        1 UNL1     -0.0516
     20 C         -7.216293   2.699674   6.667095 C.ar        1 UNL1     -0.0198
     21 C         -8.056001   2.831376   7.758595 C.ar        1 UNL1     0.1169
     22 C         -7.725666   2.259332   8.980268 C.ar        1 UNL1     -0.0198
     23 C         -6.5189   1.561937   9.112225 C.ar        1 UNL1     -0.0516
     24 O         -9.213738   3.534293   7.597498 O.3        1 UNL1     -0.5068
     25 O         -5.749432   -2.438729   8.28345 O.2        1 UNL1     -0.2917
     26 O         -5.786546   -3.396971   5.763743 O.3        1 UNL1     -0.5058
     27 O         -0.227031   -0.189985   2.542105 O.3        1 UNL1     -0.3648
     28 O         0.268015   -1.953878   -0.566881 O.3        1 UNL1     -0.3841
     29 O         -2.460654   0.350916   -0.261698 O.3        1 UNL1     -0.3863
     30 O         -2.442247   -3.322771   -0.200077 O.3        1 UNL1     -0.3829
     31 H         0.628301   -1.841169   1.821005 H        1 UNL1     0.0937
     32 H         0.0   0.0   0.0 H        1 UNL1     0.0671
     33 H         -1.866164   -1.202342   -1.409614 H        1 UNL1     0.0649
     34 H         -3.83984   -1.843518   0.065408 H        1 UNL1     0.0683
     35 H         -3.193195   -2.94302   2.159972 H        1 UNL1     0.1085
     36 H         -4.817738   -2.965194   3.443766 H        1 UNL1     0.0691
     37 H         -2.779777   0.693376   4.488651 H        1 UNL1     0.0691
     38 H         -3.32944   -0.998719   9.028178 H        1 UNL1     0.0385
     39 H         -4.891962   -0.589522   9.762769 H        1 UNL1     0.0385
     40 H         -3.667682   1.408536   8.825619 H        1 UNL1     0.0789
     41 H         -5.355216   1.936424   5.93412 H        1 UNL1     0.0623
     42 H         -7.491928   3.13942   5.711762 H        1 UNL1     0.0654
     43 H         -8.382839   2.343514   9.837559 H        1 UNL1     0.0654
     44 H         -6.297698   1.11871   10.078384 H        1 UNL1     0.0623
     45 H         -8.98776   4.441821   7.336645 H        1 UNL1     0.2921
     46 H         -5.382555   -3.909512   6.481729 H        1 UNL1     0.2922
     47 H         0.516027   0.363686   2.264303 H        1 UNL1     0.2126
     48 H         1.200901   -1.888109   -0.285581 H        1 UNL1     0.2101
     49 H         -2.021659   0.933223   -0.902007 H        1 UNL1     0.2100
     50 H         -2.675375   -3.337844   -1.151464 H        1 UNL1     0.2102
@<TRIPOS>BOND
     1     1     2    1
     2     1     6    1
     3     2     3    1
     4     3     4    1
     5     3    29    1
     6     3    33    1
     7     4     5    1
     8     5     6    1
     9     5     7    1
    10     5    35    1
    11     7     8    1
    12     8     9   ar
    13     8    13   ar
    14     9    10   ar
    15     9    36    1
    16    10    11   ar
    17    10    26    1
    18    11    12   ar
    19    11    14    1
    20    12    13   ar
    21    12    17    1
    22    13    37    1
    23    14    15    1
    24    14    25    2
    25    15    16    1
    26    15    38    1
    27    15    39    1
    28    16    17    1
    29    16    18    1
    30    16    40    1
    31    18    19   ar
    32    18    23   ar
    33    19    20   ar
    34    19    41    1
    35    20    21   ar
    36    20    42    1
    37    21    22   ar
    38    21    24    1
    39    22    23   ar
    40    22    43    1
    41    23    44    1
    42    24    45    1
    43    26    46    1
    44    27    47    1
    45    28    48    1
    46    29    49    1
    47    30    50    1
    48     1    31    1
    49     1    27    1
    50     2    32    1
    51     2    28    1
    52     4    34    1
    53     4    30    1
