@<TRIPOS>MOLECULE
*****
 50 53 0 0 0
SMALL
GASTEIGER

@<TRIPOS>ATOM
     1 C         -1.09126   -1.425912   1.243676 C.3        1 UNL1     0.1889
     2 C         0.063424   -0.414046   1.013955 C.3        1 UNL1     0.1342
     3 C         1.471738   -0.987401   1.233912 C.3        1 UNL1     0.1174
     4 C         1.520919   -2.025977   2.357326 C.3        1 UNL1     0.1456
     5 C         0.381413   -3.056584   2.258646 C.3        1 UNL1     0.2326
     6 O         -0.878856   -2.389833   2.264527 O.3        1 UNL1     -0.3076
     7 O         0.531378   -3.973463   1.159481 O.3        1 UNL1     -0.4605
     8 C         -0.583555   -4.728992   0.843844 C.ar        1 UNL1     0.1310
     9 C         -0.590342   -6.110529   0.623364 C.ar        1 UNL1     0.0226
     10 C         -1.777462   -6.789998   0.325087 C.ar        1 UNL1     0.1343
     11 C         -2.991596   -6.107413   0.263457 C.ar        1 UNL1     0.1007
     12 C         -2.991297   -4.721352   0.441274 C.ar        1 UNL1     0.1389
     13 C         -1.797121   -4.037984   0.738567 C.ar        1 UNL1     0.0229
     14 C         -4.287324   -6.787909   0.035054 C.2        1 UNL1     0.1740
     15 C         -5.509227   -5.937186   0.221529 C.3        1 UNL1     0.0520
     16 C         -5.232281   -4.560622   -0.366968 C.3        1 UNL1     0.1322
     17 O         -4.111052   -3.935683   0.295878 O.3        1 UNL1     -0.4828
     18 C         -5.152739   -4.548583   -1.895449 C.ar        1 UNL1     -0.0067
     19 C         -5.122459   -3.314933   -2.577654 C.ar        1 UNL1     -0.0516
     20 C         -5.09762   -3.268155   -3.976638 C.ar        1 UNL1     -0.0198
     21 C         -5.110168   -4.44525   -4.703354 C.ar        1 UNL1     0.1169
     22 C         -5.10603   -5.675886   -4.059648 C.ar        1 UNL1     -0.0198
     23 C         -5.112226   -5.723123   -2.660439 C.ar        1 UNL1     -0.0516
     24 O         -5.123621   -4.359875   -6.064578 O.3        1 UNL1     -0.5068
     25 O         -4.387012   -7.986836   -0.212172 O.2        1 UNL1     -0.2917
     26 O         -1.71575   -8.137453   0.119804 O.3        1 UNL1     -0.5058
     27 O         -1.56419   -2.025082   0.0478 O.3        1 UNL1     -0.3648
     28 O         -0.101141   0.682096   1.932703 O.3        1 UNL1     -0.3841
     29 O         2.018691   -1.47353   0.006454 O.3        1 UNL1     -0.3863
     30 O         1.427374   -1.351185   3.630745 O.3        1 UNL1     -0.3829
     31 H         -1.94565   -0.847341   1.611579 H        1 UNL1     0.0937
     32 H         0.0   0.0   0.0 H        1 UNL1     0.0671
     33 H         2.127253   -0.159323   1.537732 H        1 UNL1     0.0649
     34 H         2.483686   -2.548692   2.341514 H        1 UNL1     0.0683
     35 H         0.449887   -3.617506   3.199155 H        1 UNL1     0.1085
     36 H         0.311328   -6.706551   0.712071 H        1 UNL1     0.0691
     37 H         -1.823488   -2.958573   0.871496 H        1 UNL1     0.0691
     38 H         -5.708084   -5.874343   1.296719 H        1 UNL1     0.0385
     39 H         -6.364247   -6.427416   -0.256375 H        1 UNL1     0.0385
     40 H         -6.090284   -3.922526   -0.115602 H        1 UNL1     0.0789
     41 H         -5.121252   -2.376851   -2.030249 H        1 UNL1     0.0623
     42 H         -5.086411   -2.310526   -4.491258 H        1 UNL1     0.0654
     43 H         -5.10071   -6.603882   -4.618849 H        1 UNL1     0.0654
     44 H         -5.098117   -6.701849   -2.190609 H        1 UNL1     0.0623
     45 H         -4.493597   -5.008204   -6.418776 H        1 UNL1     0.2921
     46 H         -1.808338   -8.324933   -0.827662 H        1 UNL1     0.2922
     47 H         -0.853824   -2.522233   -0.381245 H        1 UNL1     0.2126
     48 H         0.098139   1.497593   1.43372 H        1 UNL1     0.2101
     49 H         2.260588   -2.408654   0.100387 H        1 UNL1     0.2100
     50 H         0.671026   -0.73004   3.587976 H        1 UNL1     0.2102
@<TRIPOS>BOND
     1     1     2    1
     2     1     6    1
     3     2     3    1
     4     3     4    1
     5     3    29    1
     6     3    33    1
     7     4     5    1
     8     5     6    1
     9     5     7    1
    10     5    35    1
    11     7     8    1
    12     8     9   ar
    13     8    13   ar
    14     9    10   ar
    15     9    36    1
    16    10    11   ar
    17    10    26    1
    18    11    12   ar
    19    11    14    1
    20    12    13   ar
    21    12    17    1
    22    13    37    1
    23    14    15    1
    24    14    25    2
    25    15    16    1
    26    15    38    1
    27    15    39    1
    28    16    17    1
    29    16    18    1
    30    16    40    1
    31    18    19   ar
    32    18    23   ar
    33    19    20   ar
    34    19    41    1
    35    20    21   ar
    36    20    42    1
    37    21    22   ar
    38    21    24    1
    39    22    23   ar
    40    22    43    1
    41    23    44    1
    42    24    45    1
    43    26    46    1
    44    27    47    1
    45    28    48    1
    46    29    49    1
    47    30    50    1
    48     1    31    1
    49     1    27    1
    50     2    32    1
    51     2    28    1
    52     4    34    1
    53     4    30    1
