@<TRIPOS>MOLECULE
*****
 50 53 0 0 0
SMALL
GASTEIGER

@<TRIPOS>ATOM
     1 C         -0.336739   -1.330983   1.698792 C.3        1 UNL1     0.1889
     2 C         -0.46494   -0.974698   0.19328 C.3        1 UNL1     0.1342
     3 C         -1.905232   -0.957677   -0.341261 C.3        1 UNL1     0.1174
     4 C         -2.794658   -2.016179   0.31571 C.3        1 UNL1     0.1456
     5 C         -2.644564   -2.044976   1.847704 C.3        1 UNL1     0.2326
     6 O         -1.280521   -2.266982   2.198371 O.3        1 UNL1     -0.3076
     7 O         -3.217405   -0.897897   2.50145 O.3        1 UNL1     -0.4605
     8 C         -3.729071   -1.114778   3.768213 C.ar        1 UNL1     0.1310
     9 C         -4.548433   -2.186562   4.138655 C.ar        1 UNL1     0.0226
     10 C         -5.003219   -2.328615   5.455048 C.ar        1 UNL1     0.1343
     11 C         -4.629792   -1.414431   6.439254 C.ar        1 UNL1     0.1007
     12 C         -3.845569   -0.317471   6.072573 C.ar        1 UNL1     0.1389
     13 C         -3.390587   -0.173418   4.74831 C.ar        1 UNL1     0.0229
     14 C         -5.01241   -1.562332   7.862589 C.2        1 UNL1     0.1740
     15 C         -4.342255   -0.617711   8.816597 C.3        1 UNL1     0.0520
     16 C         -4.268911   0.755473   8.163188 C.3        1 UNL1     0.1322
     17 O         -3.50909   0.699371   6.935754 O.3        1 UNL1     -0.4828
     18 C         -5.626342   1.451434   8.037714 C.ar        1 UNL1     -0.0067
     19 C         -6.001502   2.02021   6.803225 C.ar        1 UNL1     -0.0516
     20 C         -7.214958   2.705004   6.66704 C.ar        1 UNL1     -0.0198
     21 C         -8.056726   2.833972   7.757279 C.ar        1 UNL1     0.1169
     22 C         -7.73034   2.255977   8.97721 C.ar        1 UNL1     -0.0198
     23 C         -6.525453   1.555271   9.108794 C.ar        1 UNL1     -0.0516
     24 O         -9.212509   3.540212   7.596685 O.3        1 UNL1     -0.5068
     25 O         -5.763787   -2.443079   8.272716 O.2        1 UNL1     -0.2917
     26 O         -5.800442   -3.395632   5.750846 O.3        1 UNL1     -0.5058
     27 O         -0.229536   -0.194717   2.541521 O.3        1 UNL1     -0.3648
     28 O         0.263995   -1.953312   -0.570704 O.3        1 UNL1     -0.3841
     29 O         -2.459629   0.357103   -0.262964 O.3        1 UNL1     -0.3863
     30 O         -2.449698   -3.316736   -0.208927 O.3        1 UNL1     -0.3829
     31 H         0.622594   -1.846366   1.8177 H        1 UNL1     0.0937
     32 H         0.0   0.0   0.0 H        1 UNL1     0.0671
     33 H         -1.867768   -1.19514   -1.413608 H        1 UNL1     0.0649
     34 H         -3.84411   -1.834832   0.058486 H        1 UNL1     0.0683
     35 H         -3.201694   -2.940141   2.151294 H        1 UNL1     0.1085
     36 H         -4.827973   -2.961101   3.432917 H        1 UNL1     0.0691
     37 H         -2.782165   0.690097   4.488199 H        1 UNL1     0.0691
     38 H         -3.341086   -1.010705   9.02334 H        1 UNL1     0.0385
     39 H         -4.903416   -0.599282   9.757095 H        1 UNL1     0.0385
     40 H         -3.673161   1.397822   8.825752 H        1 UNL1     0.0789
     41 H         -5.354038   1.940634   5.934831 H        1 UNL1     0.0623
     42 H         -7.487522   3.149443   5.712999 H        1 UNL1     0.0654
     43 H         -8.389175   2.338007   9.833433 H        1 UNL1     0.0654
     44 H         -6.307352   1.107428   10.073529 H        1 UNL1     0.0623
     45 H         -8.983753   4.449809   7.345644 H        1 UNL1     0.2921
     46 H         -5.399297   -3.909887   6.469203 H        1 UNL1     0.2922
     47 H         0.513327   0.35924   2.263768 H        1 UNL1     0.2126
     48 H         1.197757   -1.886357   -0.292608 H        1 UNL1     0.2101
     49 H         -2.018897   0.93968   -0.901833 H        1 UNL1     0.2100
     50 H         -2.682084   -3.329308   -1.160531 H        1 UNL1     0.2102
@<TRIPOS>BOND
     1     1     2    1
     2     1     6    1
     3     2     3    1
     4     3     4    1
     5     3    29    1
     6     3    33    1
     7     4     5    1
     8     5     6    1
     9     5     7    1
    10     5    35    1
    11     7     8    1
    12     8     9   ar
    13     8    13   ar
    14     9    10   ar
    15     9    36    1
    16    10    11   ar
    17    10    26    1
    18    11    12   ar
    19    11    14    1
    20    12    13   ar
    21    12    17    1
    22    13    37    1
    23    14    15    1
    24    14    25    2
    25    15    16    1
    26    15    38    1
    27    15    39    1
    28    16    17    1
    29    16    18    1
    30    16    40    1
    31    18    19   ar
    32    18    23   ar
    33    19    20   ar
    34    19    41    1
    35    20    21   ar
    36    20    42    1
    37    21    22   ar
    38    21    24    1
    39    22    23   ar
    40    22    43    1
    41    23    44    1
    42    24    45    1
    43    26    46    1
    44    27    47    1
    45    28    48    1
    46    29    49    1
    47    30    50    1
    48     1    31    1
    49     1    27    1
    50     2    32    1
    51     2    28    1
    52     4    34    1
    53     4    30    1
