@<TRIPOS>MOLECULE
*****
 50 53 0 0 0
SMALL
GASTEIGER

@<TRIPOS>ATOM
     1 C         -0.330575   -1.327316   1.702867 C.3        1 UNL1     0.1889
     2 C         -0.461784   -0.975543   0.196554 C.3        1 UNL1     0.1342
     3 C         -1.90281   -0.964274   -0.336157 C.3        1 UNL1     0.1174
     4 C         -2.788229   -2.023612   0.324867 C.3        1 UNL1     0.1456
     5 C         -2.636068   -2.047762   1.856738 C.3        1 UNL1     0.2326
     6 O         -1.270916   -2.264746   2.206235 O.3        1 UNL1     -0.3076
     7 O         -3.211477   -0.900605   2.508086 O.3        1 UNL1     -0.4605
     8 C         -4.124164   -1.168182   3.512542 C.ar        1 UNL1     0.1310
     9 C         -5.166749   -2.097742   3.433561 C.ar        1 UNL1     0.0226
     10 C         -6.030872   -2.309647   4.514435 C.ar        1 UNL1     0.1343
     11 C         -5.858521   -1.613549   5.710087 C.ar        1 UNL1     0.1007
     12 C         -4.846356   -0.653127   5.786855 C.ar        1 UNL1     0.1389
     13 C         -3.979262   -0.438346   4.698991 C.ar        1 UNL1     0.0229
     14 C         -6.689765   -1.858317   6.911452 C.2        1 UNL1     0.1740
     15 C         -6.225331   -1.186499   8.170225 C.3        1 UNL1     0.0520
     16 C         -5.747851   0.216064   7.819812 C.3        1 UNL1     0.1322
     17 O         -4.655198   0.164944   6.876114 O.3        1 UNL1     -0.4828
     18 C         -6.877811   1.172405   7.430806 C.ar        1 UNL1     -0.0067
     19 C         -6.755867   1.948626   6.259984 C.ar        1 UNL1     -0.0516
     20 C         -7.749144   2.86743   5.900593 C.ar        1 UNL1     -0.0198
     21 C         -8.863162   3.024275   6.705696 C.ar        1 UNL1     0.1169
     22 C         -9.027591   2.250319   7.847096 C.ar        1 UNL1     -0.0198
     23 C         -8.043245   1.318246   8.196893 C.ar        1 UNL1     -0.0516
     24 O         -9.791509   3.955715   6.343769 O.3        1 UNL1     -0.5068
     25 O         -7.653157   -2.620039   6.923307 O.2        1 UNL1     -0.2917
     26 O         -7.02836   -3.229682   4.372525 O.3        1 UNL1     -0.5058
     27 O         -0.225666   -0.18843   2.542342 O.3        1 UNL1     -0.3648
     28 O         0.269074   -1.954076   -0.565697 O.3        1 UNL1     -0.3841
     29 O         -2.46102   0.34906   -0.260738 O.3        1 UNL1     -0.3863
     30 O         -2.440075   -3.324571   -0.196655 O.3        1 UNL1     -0.3829
     31 H         0.630443   -1.839515   1.821937 H        1 UNL1     0.0937
     32 H         0.0   0.0   0.0 H        1 UNL1     0.0671
     33 H         -1.866027   -1.204564   -1.407898 H        1 UNL1     0.0649
     34 H         -3.838548   -1.846094   0.068514 H        1 UNL1     0.0683
     35 H         -3.190135   -2.943745   2.163502 H        1 UNL1     0.1085
     36 H         -5.318846   -2.710428   2.551743 H        1 UNL1     0.0691
     37 H         -3.199887   0.315907   4.783673 H        1 UNL1     0.0691
     38 H         -5.410444   -1.788809   8.585808 H        1 UNL1     0.0385
     39 H         -7.046451   -1.175315   8.89508 H        1 UNL1     0.0385
     40 H         -5.305196   0.64401   8.729448 H        1 UNL1     0.0789
     41 H         -5.88669   1.850701   5.616095 H        1 UNL1     0.0623
     42 H         -7.637903   3.468684   5.001632 H        1 UNL1     0.0654
     43 H         -9.903224   2.354316   8.47667 H        1 UNL1     0.0654
     44 H         -8.209414   0.722961   9.089568 H        1 UNL1     0.0623
     45 H         -9.362141   4.826399   6.327385 H        1 UNL1     0.2921
     46 H         -6.954804   -3.897217   5.07281 H        1 UNL1     0.2922
     47 H         0.516878   0.365562   2.263807 H        1 UNL1     0.2126
     48 H         1.202052   -1.88748   -0.284895 H        1 UNL1     0.2101
     49 H         -2.022674   0.931258   -0.901591 H        1 UNL1     0.2100
     50 H         -2.673654   -3.340443   -1.147918 H        1 UNL1     0.2102
@<TRIPOS>BOND
     1     1     2    1
     2     1     6    1
     3     2     3    1
     4     3     4    1
     5     3    29    1
     6     3    33    1
     7     4     5    1
     8     5     6    1
     9     5     7    1
    10     5    35    1
    11     7     8    1
    12     8     9   ar
    13     8    13   ar
    14     9    10   ar
    15     9    36    1
    16    10    11   ar
    17    10    26    1
    18    11    12   ar
    19    11    14    1
    20    12    13   ar
    21    12    17    1
    22    13    37    1
    23    14    15    1
    24    14    25    2
    25    15    16    1
    26    15    38    1
    27    15    39    1
    28    16    17    1
    29    16    18    1
    30    16    40    1
    31    18    19   ar
    32    18    23   ar
    33    19    20   ar
    34    19    41    1
    35    20    21   ar
    36    20    42    1
    37    21    22   ar
    38    21    24    1
    39    22    23   ar
    40    22    43    1
    41    23    44    1
    42    24    45    1
    43    26    46    1
    44    27    47    1
    45    28    48    1
    46    29    49    1
    47    30    50    1
    48     1    31    1
    49     1    27    1
    50     2    32    1
    51     2    28    1
    52     4    34    1
    53     4    30    1
