@<TRIPOS>MOLECULE
*****
 50 53 0 0 0
SMALL
GASTEIGER

@<TRIPOS>ATOM
     1 C         0.444348   0.118355   2.135264 C.3        1 UNL1     0.1889
     2 C         0.636255   -0.514505   0.730771 C.3        1 UNL1     0.1342
     3 C         0.35669   -2.023753   0.663858 C.3        1 UNL1     0.1174
     4 C         0.763541   -2.759983   1.942747 C.3        1 UNL1     0.1456
     5 C         0.282046   -2.041093   3.216216 C.3        1 UNL1     0.2326
     6 O         0.783529   -0.706623   3.240145 O.3        1 UNL1     -0.3076
     7 O         -1.141912   -2.11407   3.412025 O.3        1 UNL1     -0.4605
     8 C         -1.571441   -2.162511   4.726059 C.ar        1 UNL1     0.1310
     9 C         -0.886263   -2.775715   5.780484 C.ar        1 UNL1     0.0226
     10 C         -1.396857   -2.75624   7.08387 C.ar        1 UNL1     0.1343
     11 C         -2.594493   -2.10187   7.369019 C.ar        1 UNL1     0.1007
     12 C         -3.308202   -1.521251   6.317219 C.ar        1 UNL1     0.1389
     13 C         -2.7959   -1.543253   5.006305 C.ar        1 UNL1     0.0229
     14 C         -3.13767   -1.978297   8.74155 C.2        1 UNL1     0.1740
     15 C         -4.31113   -1.055773   8.89481 C.3        1 UNL1     0.0520
     16 C         -5.235302   -1.249267   7.70048 C.3        1 UNL1     0.1322
     17 O         -4.548626   -0.945574   6.466252 O.3        1 UNL1     -0.4828
     18 C         -5.972524   -2.590618   7.702786 C.ar        1 UNL1     -0.0067
     19 C         -6.866914   -2.887493   8.751664 C.ar        1 UNL1     -0.0516
     20 C         -7.521326   -4.123768   8.809379 C.ar        1 UNL1     -0.0198
     21 C         -7.284765   -5.072258   7.830485 C.ar        1 UNL1     0.1169
     22 C         -6.435156   -4.796734   6.766958 C.ar        1 UNL1     -0.0198
     23 C         -5.794786   -3.553604   6.699062 C.ar        1 UNL1     -0.0516
     24 O         -7.911025   -6.278964   7.940305 O.3        1 UNL1     -0.5068
     25 O         -2.631079   -2.520086   9.720486 O.2        1 UNL1     -0.2917
     26 O         -0.680271   -3.373881   8.067032 O.3        1 UNL1     -0.5058
     27 O         -0.82223   0.733187   2.310045 O.3        1 UNL1     -0.3648
     28 O         2.002141   -0.313338   0.322611 O.3        1 UNL1     -0.3841
     29 O         -1.000081   -2.272026   0.290139 O.3        1 UNL1     -0.3863
     30 O         2.202775   -2.870545   1.988256 O.3        1 UNL1     -0.3829
     31 H         1.15806   0.946469   2.205407 H        1 UNL1     0.0937
     32 H         0.0   0.0   0.0 H        1 UNL1     0.0671
     33 H         0.964797   -2.44166   -0.150561 H        1 UNL1     0.0649
     34 H         0.363928   -3.780059   1.930266 H        1 UNL1     0.0683
     35 H         0.779362   -2.583355   4.030162 H        1 UNL1     0.1085
     36 H         0.076818   -3.252325   5.634061 H        1 UNL1     0.0691
     37 H         -3.371409   -1.084976   4.204891 H        1 UNL1     0.0691
     38 H         -3.924557   -0.031756   8.93325 H        1 UNL1     0.0385
     39 H         -4.812758   -1.267911   9.845149 H        1 UNL1     0.0385
     40 H         -6.021429   -0.485492   7.772402 H        1 UNL1     0.0789
     41 H         -7.062595   -2.163312   9.537108 H        1 UNL1     0.0623
     42 H         -8.19958   -4.345254   9.629701 H        1 UNL1     0.0654
     43 H         -6.254349   -5.526649   5.986931 H        1 UNL1     0.0654
     44 H         -5.14589   -3.368385   5.848491 H        1 UNL1     0.0623
     45 H         -7.245728   -6.950815   8.161017 H        1 UNL1     0.2921
     46 H         0.005791   -2.771061   8.394659 H        1 UNL1     0.2922
     47 H         -1.517056   0.185732   1.91842 H        1 UNL1     0.2126
     48 H         2.352673   -1.19101   0.076537 H        1 UNL1     0.2101
     49 H         -1.515888   -2.528402   1.071169 H        1 UNL1     0.2100
     50 H         2.530773   -2.918661   1.066402 H        1 UNL1     0.2102
@<TRIPOS>BOND
     1     1     2    1
     2     1     6    1
     3     2     3    1
     4     3     4    1
     5     3    29    1
     6     3    33    1
     7     4     5    1
     8     5     6    1
     9     5     7    1
    10     5    35    1
    11     7     8    1
    12     8     9   ar
    13     8    13   ar
    14     9    10   ar
    15     9    36    1
    16    10    11   ar
    17    10    26    1
    18    11    12   ar
    19    11    14    1
    20    12    13   ar
    21    12    17    1
    22    13    37    1
    23    14    15    1
    24    14    25    2
    25    15    16    1
    26    15    38    1
    27    15    39    1
    28    16    17    1
    29    16    18    1
    30    16    40    1
    31    18    19   ar
    32    18    23   ar
    33    19    20   ar
    34    19    41    1
    35    20    21   ar
    36    20    42    1
    37    21    22   ar
    38    21    24    1
    39    22    23   ar
    40    22    43    1
    41    23    44    1
    42    24    45    1
    43    26    46    1
    44    27    47    1
    45    28    48    1
    46    29    49    1
    47    30    50    1
    48     1    31    1
    49     1    27    1
    50     2    32    1
    51     2    28    1
    52     4    34    1
    53     4    30    1
