@<TRIPOS>MOLECULE
*****
 50 53 0 0 0
SMALL
GASTEIGER

@<TRIPOS>ATOM
     1 C         -2.167892   -0.225208   -0.142589 C.3        1 UNL1     0.1889
     2 C         -0.776794   0.053252   -0.772863 C.3        1 UNL1     0.1342
     3 C         -0.662711   1.398524   -1.50614 C.3        1 UNL1     0.1174
     4 C         -1.96163   1.804499   -2.206934 C.3        1 UNL1     0.1456
     5 C         -3.197721   1.630781   -1.305677 C.3        1 UNL1     0.2326
     6 O         -3.28616   0.280345   -0.856933 O.3        1 UNL1     -0.3076
     7 O         -3.264759   2.588798   -0.23375 O.3        1 UNL1     -0.4605
     8 C         -4.534964   2.964178   0.165245 C.ar        1 UNL1     0.1310
     9 C         -5.584729   3.309903   -0.692525 C.ar        1 UNL1     0.0226
     10 C         -6.843777   3.660531   -0.190767 C.ar        1 UNL1     0.1343
     11 C         -7.090635   3.650874   1.181388 C.ar        1 UNL1     0.1007
     12 C         -6.03873   3.347173   2.049746 C.ar        1 UNL1     0.1389
     13 C         -4.772125   2.997219   1.545093 C.ar        1 UNL1     0.0229
     14 C         -8.424361   3.931241   1.761667 C.2        1 UNL1     0.1740
     15 C         -8.563507   3.659106   3.230725 C.3        1 UNL1     0.0520
     16 C         -7.291951   4.121337   3.928897 C.3        1 UNL1     0.1322
     17 O         -6.140773   3.412186   3.420012 O.3        1 UNL1     -0.4828
     18 C         -7.131363   5.642854   3.972754 C.ar        1 UNL1     -0.0067
     19 C         -5.899096   6.220115   3.603292 C.ar        1 UNL1     -0.0516
     20 C         -5.703456   7.604391   3.677229 C.ar        1 UNL1     -0.0198
     21 C         -6.727515   8.419641   4.124999 C.ar        1 UNL1     0.1169
     22 C         -7.963258   7.88412   4.464105 C.ar        1 UNL1     -0.0198
     23 C         -8.165156   6.501753   4.372703 C.ar        1 UNL1     -0.0516
     24 O         -6.487844   9.759043   4.219663 O.3        1 UNL1     -0.5068
     25 O         -9.391534   4.286253   1.093065 O.2        1 UNL1     -0.2917
     26 O         -7.824692   3.988498   -1.080613 O.3        1 UNL1     -0.5058
     27 O         -2.23828   0.097563   1.23714 O.3        1 UNL1     -0.3648
     28 O         -0.495012   -0.982717   -1.732067 O.3        1 UNL1     -0.3841
     29 O         -0.16592   2.412746   -0.630534 O.3        1 UNL1     -0.3863
     30 O         -2.133544   0.996182   -3.391315 O.3        1 UNL1     -0.3829
     31 H         -2.313706   -1.310504   -0.173409 H        1 UNL1     0.0937
     32 H         0.0   0.0   0.0 H        1 UNL1     0.0671
     33 H         0.100432   1.289844   -2.289415 H        1 UNL1     0.0649
     34 H         -1.898363   2.84732   -2.536966 H        1 UNL1     0.0683
     35 H         -4.044555   1.797904   -1.98304 H        1 UNL1     0.1085
     36 H         -5.47259   3.282458   -1.770853 H        1 UNL1     0.0691
     37 H         -3.969547   2.766043   2.242172 H        1 UNL1     0.0691
     38 H         -8.712931   2.58128   3.355183 H        1 UNL1     0.0385
     39 H         -9.453666   4.173687   3.608354 H        1 UNL1     0.0385
     40 H         -7.366334   3.806607   4.978626 H        1 UNL1     0.0789
     41 H         -5.076628   5.600856   3.257293 H        1 UNL1     0.0623
     42 H         -4.744778   8.036313   3.400836 H        1 UNL1     0.0654
     43 H         -8.776897   8.514961   4.801657 H        1 UNL1     0.0654
     44 H         -9.146516   6.118766   4.635567 H        1 UNL1     0.0623
     45 H         -5.76378   9.897132   4.851628 H        1 UNL1     0.2921
     46 H         -8.593511   3.413273   -0.941168 H        1 UNL1     0.2922
     47 H         -1.54419   -0.366809   1.725461 H        1 UNL1     0.2126
     48 H         -0.457916   -1.822145   -1.234354 H        1 UNL1     0.2101
     49 H         0.767306   2.243314   -0.425166 H        1 UNL1     0.2100
     50 H         -1.41717   1.225031   -4.019128 H        1 UNL1     0.2102
@<TRIPOS>BOND
     1     1     2    1
     2     1     6    1
     3     2     3    1
     4     3     4    1
     5     3    29    1
     6     3    33    1
     7     4     5    1
     8     5     6    1
     9     5     7    1
    10     5    35    1
    11     7     8    1
    12     8     9   ar
    13     8    13   ar
    14     9    10   ar
    15     9    36    1
    16    10    11   ar
    17    10    26    1
    18    11    12   ar
    19    11    14    1
    20    12    13   ar
    21    12    17    1
    22    13    37    1
    23    14    15    1
    24    14    25    2
    25    15    16    1
    26    15    38    1
    27    15    39    1
    28    16    17    1
    29    16    18    1
    30    16    40    1
    31    18    19   ar
    32    18    23   ar
    33    19    20   ar
    34    19    41    1
    35    20    21   ar
    36    20    42    1
    37    21    22   ar
    38    21    24    1
    39    22    23   ar
    40    22    43    1
    41    23    44    1
    42    24    45    1
    43    26    46    1
    44    27    47    1
    45    28    48    1
    46    29    49    1
    47    30    50    1
    48     1    31    1
    49     1    27    1
    50     2    32    1
    51     2    28    1
    52     4    34    1
    53     4    30    1
