@<TRIPOS>MOLECULE
*****
 50 53 0 0 0
SMALL
GASTEIGER

@<TRIPOS>ATOM
     1 C         1.046572   -1.75486   -0.771984 C.3        1 UNL1     0.1889
     2 C         -0.219106   -0.866233   -0.636549 C.3        1 UNL1     0.1342
     3 C         -1.45641   -1.592139   -0.086456 C.3        1 UNL1     0.1174
     4 C         -1.540122   -3.051019   -0.542285 C.3        1 UNL1     0.1456
     5 C         -0.200211   -3.794219   -0.391766 C.3        1 UNL1     0.2326
     6 O         0.818292   -3.11243   -1.120247 O.3        1 UNL1     -0.3076
     7 O         0.160585   -4.053979   0.977055 O.3        1 UNL1     -0.4605
     8 C         0.891751   -5.206304   1.203042 C.ar        1 UNL1     0.1310
     9 C         0.609629   -6.464528   0.66029 C.ar        1 UNL1     0.0226
     10 C         1.422407   -7.570505   0.936166 C.ar        1 UNL1     0.1343
     11 C         2.551775   -7.439716   1.743175 C.ar        1 UNL1     0.1007
     12 C         2.820578   -6.197473   2.324003 C.ar        1 UNL1     0.1389
     13 C         2.001682   -5.086175   2.048585 C.ar        1 UNL1     0.0229
     14 C         3.491869   -8.555335   1.999636 C.2        1 UNL1     0.1740
     15 C         4.764901   -8.183335   2.701457 C.3        1 UNL1     0.0520
     16 C         4.437133   -7.16884   3.788345 C.3        1 UNL1     0.1322
     17 O         3.842516   -5.981603   3.219163 O.3        1 UNL1     -0.4828
     18 C         3.665846   -7.760155   4.970794 C.ar        1 UNL1     -0.0067
     19 C         2.510527   -7.103388   5.442078 C.ar        1 UNL1     -0.0516
     20 C         1.808879   -7.59121   6.550989 C.ar        1 UNL1     -0.0198
     21 C         2.255559   -8.728154   7.200344 C.ar        1 UNL1     0.1169
     22 C         3.370735   -9.415816   6.739536 C.ar        1 UNL1     -0.0198
     23 C         4.06191   -8.938624   5.619437 C.ar        1 UNL1     -0.0516
     24 O         1.568391   -9.152101   8.299648 O.3        1 UNL1     -0.5068
     25 O         3.303642   -9.702658   1.603773 O.2        1 UNL1     -0.2917
     26 O         1.091767   -8.770064   0.376416 O.3        1 UNL1     -0.5058
     27 O         1.939076   -1.638444   0.32468 O.3        1 UNL1     -0.3648
     28 O         -0.563178   -0.36083   -1.939964 O.3        1 UNL1     -0.3841
     29 O         -1.538064   -1.450327   1.333176 O.3        1 UNL1     -0.3863
     30 O         -1.940135   -3.091729   -1.929376 O.3        1 UNL1     -0.3829
     31 H         1.613633   -1.363855   -1.623826 H        1 UNL1     0.0937
     32 H         0.0   0.0   0.0 H        1 UNL1     0.0671
     33 H         -2.346866   -1.083961   -0.482135 H        1 UNL1     0.0649
     34 H         -2.312091   -3.577789   0.029534 H        1 UNL1     0.0683
     35 H         -0.369986   -4.751344   -0.900654 H        1 UNL1     0.1085
     36 H         -0.221378   -6.619138   -0.019154 H        1 UNL1     0.0691
     37 H         2.231806   -4.130238   2.514118 H        1 UNL1     0.0691
     38 H         5.442497   -7.756619   1.95426 H        1 UNL1     0.0385
     39 H         5.229175   -9.088875   3.106704 H        1 UNL1     0.0385
     40 H         5.391938   -6.823722   4.207583 H        1 UNL1     0.0789
     41 H         2.144789   -6.203965   4.95533 H        1 UNL1     0.0623
     42 H         0.926242   -7.069115   6.912072 H        1 UNL1     0.0654
     43 H         3.720446   -10.315625   7.231427 H        1 UNL1     0.0654
     44 H         4.922746   -9.506859   5.280446 H        1 UNL1     0.0623
     45 H         1.594242   -8.448122   8.967825 H        1 UNL1     0.2921
     46 H         1.841611   -9.103026   -0.141543 H        1 UNL1     0.2922
     47 H         2.193409   -0.713897   0.45269 H        1 UNL1     0.2126
     48 H         0.19463   0.176929   -2.240422 H        1 UNL1     0.2101
     49 H         -1.746987   -0.53053   1.561474 H        1 UNL1     0.2100
     50 H         -2.85344   -2.742598   -1.99016 H        1 UNL1     0.2102
@<TRIPOS>BOND
     1     1     2    1
     2     1     6    1
     3     2     3    1
     4     3     4    1
     5     3    29    1
     6     3    33    1
     7     4     5    1
     8     5     6    1
     9     5     7    1
    10     5    35    1
    11     7     8    1
    12     8     9   ar
    13     8    13   ar
    14     9    10   ar
    15     9    36    1
    16    10    11   ar
    17    10    26    1
    18    11    12   ar
    19    11    14    1
    20    12    13   ar
    21    12    17    1
    22    13    37    1
    23    14    15    1
    24    14    25    2
    25    15    16    1
    26    15    38    1
    27    15    39    1
    28    16    17    1
    29    16    18    1
    30    16    40    1
    31    18    19   ar
    32    18    23   ar
    33    19    20   ar
    34    19    41    1
    35    20    21   ar
    36    20    42    1
    37    21    22   ar
    38    21    24    1
    39    22    23   ar
    40    22    43    1
    41    23    44    1
    42    24    45    1
    43    26    46    1
    44    27    47    1
    45    28    48    1
    46    29    49    1
    47    30    50    1
    48     1    31    1
    49     1    27    1
    50     2    32    1
    51     2    28    1
    52     4    34    1
    53     4    30    1
