@<TRIPOS>MOLECULE
*****
 50 53 0 0 0
SMALL
GASTEIGER

@<TRIPOS>ATOM
     1 C         0.36563   1.747803   -1.257897 C.3        1 UNL1     0.1889
     2 C         0.857436   0.586535   -0.352621 C.3        1 UNL1     0.1342
     3 C         1.694729   1.027462   0.857747 C.3        1 UNL1     0.1174
     4 C         2.572725   2.245492   0.560017 C.3        1 UNL1     0.1456
     5 C         1.805024   3.36188   -0.171198 C.3        1 UNL1     0.2326
     6 O         1.245815   2.855289   -1.380958 O.3        1 UNL1     -0.3076
     7 O         0.841136   4.033888   0.659854 O.3        1 UNL1     -0.4605
     8 C         0.289725   5.189272   0.135867 C.ar        1 UNL1     0.1310
     9 C         0.700964   6.492204   0.436782 C.ar        1 UNL1     0.0226
     10 C         0.088908   7.600493   -0.160701 C.ar        1 UNL1     0.1343
     11 C         -0.934337   7.431651   -1.09253 C.ar        1 UNL1     0.1007
     12 C         -1.381313   6.137111   -1.370312 C.ar        1 UNL1     0.1389
     13 C         -0.767509   5.023019   -0.767425 C.ar        1 UNL1     0.0229
     14 C         -1.559011   8.562957   -1.816464 C.2        1 UNL1     0.1740
     15 C         -2.480926   8.185887   -2.938712 C.3        1 UNL1     0.0520
     16 C         -3.306382   6.983842   -2.500911 C.3        1 UNL1     0.1322
     17 O         -2.452102   5.861447   -2.188655 O.3        1 UNL1     -0.4828
     18 C         -4.345451   7.308795   -1.425056 C.ar        1 UNL1     -0.0067
     19 C         -4.664406   6.33709   -0.45435 C.ar        1 UNL1     -0.0516
     20 C         -5.644075   6.584368   0.514703 C.ar        1 UNL1     -0.0198
     21 C         -6.315611   7.79385   0.51917 C.ar        1 UNL1     0.1169
     22 C         -6.00023   8.783233   -0.403053 C.ar        1 UNL1     -0.0198
     23 C         -5.007647   8.543201   -1.360769 C.ar        1 UNL1     -0.0516
     24 O         -7.289869   7.984403   1.454537 O.3        1 UNL1     -0.5068
     25 O         -1.295509   9.740444   -1.587171 O.2        1 UNL1     -0.2917
     26 O         0.536158   8.844585   0.176622 O.3        1 UNL1     -0.5058
     27 O         -0.961312   2.162335   -0.974742 O.3        1 UNL1     -0.3648
     28 O         1.678265   -0.292492   -1.143985 O.3        1 UNL1     -0.3841
     29 O         0.866419   1.210134   2.007819 O.3        1 UNL1     -0.3863
     30 O         3.688804   1.835913   -0.259924 O.3        1 UNL1     -0.3829
     31 H         0.311918   1.348965   -2.27678 H        1 UNL1     0.0937
     32 H         0.0   0.0   0.0 H        1 UNL1     0.0671
     33 H         2.373068   0.201958   1.114886 H        1 UNL1     0.0649
     34 H         2.988806   2.643414   1.492184 H        1 UNL1     0.0683
     35 H         2.586486   4.077419   -0.456153 H        1 UNL1     0.1085
     36 H         1.528025   6.687852   1.110438 H        1 UNL1     0.0691
     37 H         -1.1348   4.025691   -0.999646 H        1 UNL1     0.0691
     38 H         -1.861587   7.943858   -3.808981 H        1 UNL1     0.0385
     39 H         -3.107257   9.047575   -3.193629 H        1 UNL1     0.0385
     40 H         -3.885492   6.653581   -3.373883 H        1 UNL1     0.0789
     41 H         -4.158017   5.376322   -0.442203 H        1 UNL1     0.0623
     42 H         -5.889405   5.822544   1.250535 H        1 UNL1     0.0654
     43 H         -6.509368   9.739619   -0.399177 H        1 UNL1     0.0654
     44 H         -4.779564   9.342494   -2.059306 H        1 UNL1     0.0623
     45 H         -6.881483   8.362641   2.25007 H        1 UNL1     0.2921
     46 H         -0.055227   9.231775   0.841272 H        1 UNL1     0.2922
     47 H         -1.562478   1.858017   -1.668896 H        1 UNL1     0.2126
     48 H         2.147586   -0.876378   -0.517449 H        1 UNL1     0.2101
     49 H         1.357963   1.685594   2.69638 H        1 UNL1     0.2100
     50 H         3.515944   0.92292   -0.570208 H        1 UNL1     0.2102
@<TRIPOS>BOND
     1     1     2    1
     2     1     6    1
     3     2     3    1
     4     3     4    1
     5     3    29    1
     6     3    33    1
     7     4     5    1
     8     5     6    1
     9     5     7    1
    10     5    35    1
    11     7     8    1
    12     8     9   ar
    13     8    13   ar
    14     9    10   ar
    15     9    36    1
    16    10    11   ar
    17    10    26    1
    18    11    12   ar
    19    11    14    1
    20    12    13   ar
    21    12    17    1
    22    13    37    1
    23    14    15    1
    24    14    25    2
    25    15    16    1
    26    15    38    1
    27    15    39    1
    28    16    17    1
    29    16    18    1
    30    16    40    1
    31    18    19   ar
    32    18    23   ar
    33    19    20   ar
    34    19    41    1
    35    20    21   ar
    36    20    42    1
    37    21    22   ar
    38    21    24    1
    39    22    23   ar
    40    22    43    1
    41    23    44    1
    42    24    45    1
    43    26    46    1
    44    27    47    1
    45    28    48    1
    46    29    49    1
    47    30    50    1
    48     1    31    1
    49     1    27    1
    50     2    32    1
    51     2    28    1
    52     4    34    1
    53     4    30    1
