@<TRIPOS>MOLECULE
*****
 50 53 0 0 0
SMALL
GASTEIGER

@<TRIPOS>ATOM
     1 C         0.604813   -1.511975   -1.455657 C.3        1 UNL1     0.1889
     2 C         0.302455   -1.054548   -0.003321 C.3        1 UNL1     0.1342
     3 C         1.463819   -1.245874   0.984147 C.3        1 UNL1     0.1174
     4 C         2.293629   -2.49785   0.68904 C.3        1 UNL1     0.1456
     5 C         2.648402   -2.632629   -0.80305 C.3        1 UNL1     0.2326
     6 O         1.457564   -2.639777   -1.587092 O.3        1 UNL1     -0.3076
     7 O         3.615596   -1.665974   -1.251865 O.3        1 UNL1     -0.4605
     8 C         3.809904   -1.592817   -2.619498 C.ar        1 UNL1     0.1310
     9 C         2.807529   -1.369521   -3.569595 C.ar        1 UNL1     0.0226
     10 C         3.108091   -1.294928   -4.934879 C.ar        1 UNL1     0.1343
     11 C         4.42304   -1.418223   -5.381587 C.ar        1 UNL1     0.1007
     12 C         5.426966   -1.68235   -4.44609 C.ar        1 UNL1     0.1389
     13 C         5.124122   -1.759941   -3.073612 C.ar        1 UNL1     0.0229
     14 C         4.808251   -1.264273   -6.80358 C.2        1 UNL1     0.1740
     15 C         6.283012   -1.205157   -7.074014 C.3        1 UNL1     0.0520
     16 C         6.978059   -2.222143   -6.179247 C.3        1 UNL1     0.1322
     17 O         6.737183   -1.928155   -4.785468 O.3        1 UNL1     -0.4828
     18 C         6.711327   -3.67611   -6.576182 C.ar        1 UNL1     -0.0067
     19 C         7.780181   -4.595528   -6.597067 C.ar        1 UNL1     -0.0516
     20 C         7.579777   -5.920957   -7.000849 C.ar        1 UNL1     -0.0198
     21 C         6.319616   -6.336457   -7.392233 C.ar        1 UNL1     0.1169
     22 C         5.240464   -5.46323   -7.350464 C.ar        1 UNL1     -0.0198
     23 C         5.436897   -4.142648   -6.929117 C.ar        1 UNL1     -0.0516
     24 O         6.170334   -7.624524   -7.815315 O.3        1 UNL1     -0.5068
     25 O         3.995365   -1.111781   -7.711571 O.2        1 UNL1     -0.2917
     26 O         2.084465   -1.076239   -5.810065 O.3        1 UNL1     -0.5058
     27 O         1.002455   -0.452199   -2.310959 O.3        1 UNL1     -0.3648
     28 O         -0.812105   -1.818886   0.492917 O.3        1 UNL1     -0.3841
     29 O         2.25922   -0.061561   1.067043 O.3        1 UNL1     -0.3863
     30 O         1.549282   -3.666451   1.096482 O.3        1 UNL1     -0.3829
     31 H         -0.344569   -1.858126   -1.87866 H        1 UNL1     0.0937
     32 H         0.0   0.0   0.0 H        1 UNL1     0.0671
     33 H         1.033284   -1.378934   1.986472 H        1 UNL1     0.0649
     34 H         3.21598   -2.483105   1.280186 H        1 UNL1     0.0683
     35 H         3.087628   -3.635067   -0.881008 H        1 UNL1     0.1085
     36 H         1.774265   -1.209737   -3.281574 H        1 UNL1     0.0691
     37 H         5.923587   -1.967633   -2.365648 H        1 UNL1     0.0691
     38 H         6.620082   -0.187246   -6.850928 H        1 UNL1     0.0385
     39 H         6.461018   -1.399108   -8.137252 H        1 UNL1     0.0385
     40 H         8.05971   -2.079818   -6.306905 H        1 UNL1     0.0789
     41 H         8.780677   -4.291652   -6.30327 H        1 UNL1     0.0623
     42 H         8.414406   -6.617283   -7.024012 H        1 UNL1     0.0654
     43 H         4.246434   -5.782175   -7.640446 H        1 UNL1     0.0654
     44 H         4.569326   -3.49054   -6.898754 H        1 UNL1     0.0623
     45 H         6.654965   -8.205374   -7.206659 H        1 UNL1     0.2921
     46 H         2.22918   -1.599266   -6.614374 H        1 UNL1     0.2922
     47 H         1.715665   -0.74371   -2.895949 H        1 UNL1     0.2126
     48 H         -0.524541   -2.751964   0.513042 H        1 UNL1     0.2101
     49 H         3.12068   -0.269606   1.462514 H        1 UNL1     0.2100
     50 H         1.476614   -3.65219   2.073329 H        1 UNL1     0.2102
@<TRIPOS>BOND
     1     1     2    1
     2     1     6    1
     3     2     3    1
     4     3     4    1
     5     3    29    1
     6     3    33    1
     7     4     5    1
     8     5     6    1
     9     5     7    1
    10     5    35    1
    11     7     8    1
    12     8     9   ar
    13     8    13   ar
    14     9    10   ar
    15     9    36    1
    16    10    11   ar
    17    10    26    1
    18    11    12   ar
    19    11    14    1
    20    12    13   ar
    21    12    17    1
    22    13    37    1
    23    14    15    1
    24    14    25    2
    25    15    16    1
    26    15    38    1
    27    15    39    1
    28    16    17    1
    29    16    18    1
    30    16    40    1
    31    18    19   ar
    32    18    23   ar
    33    19    20   ar
    34    19    41    1
    35    20    21   ar
    36    20    42    1
    37    21    22   ar
    38    21    24    1
    39    22    23   ar
    40    22    43    1
    41    23    44    1
    42    24    45    1
    43    26    46    1
    44    27    47    1
    45    28    48    1
    46    29    49    1
    47    30    50    1
    48     1    31    1
    49     1    27    1
    50     2    32    1
    51     2    28    1
    52     4    34    1
    53     4    30    1
