@<TRIPOS>MOLECULE
*****
 50 53 0 0 0
SMALL
GASTEIGER

@<TRIPOS>ATOM
     1 C         -0.33892   -1.333153   1.696656 C.3        1 UNL1     0.1889
     2 C         -0.465771   -0.974641   0.191559 C.3        1 UNL1     0.1342
     3 C         -1.905661   -0.955839   -0.344006 C.3        1 UNL1     0.1174
     4 C         -2.796316   -2.014641   0.310816 C.3        1 UNL1     0.1456
     5 C         -2.647358   -2.045718   1.842876 C.3        1 UNL1     0.2326
     6 O         -1.283728   -2.269189   2.194219 O.3        1 UNL1     -0.3076
     7 O         -3.219862   -0.899161   2.497833 O.3        1 UNL1     -0.4605
     8 C         -3.746179   -1.120739   3.757761 C.ar        1 UNL1     0.1310
     9 C         -4.576083   -2.189624   4.112794 C.ar        1 UNL1     0.0226
     10 C         -5.045579   -2.337049   5.42342 C.ar        1 UNL1     0.1343
     11 C         -4.676821   -1.431431   6.417259 C.ar        1 UNL1     0.1007
     12 C         -3.881936   -0.337173   6.065777 C.ar        1 UNL1     0.1389
     13 C         -3.412148   -0.187701   4.747298 C.ar        1 UNL1     0.0229
     14 C         -5.075317   -1.58583   7.835538 C.2        1 UNL1     0.1740
     15 C         -4.409344   -0.651462   8.802486 C.3        1 UNL1     0.0520
     16 C         -4.320538   0.725299   8.158593 C.3        1 UNL1     0.1322
     17 O         -3.548206   0.67209   6.938863 O.3        1 UNL1     -0.4828
     18 C         -5.672194   1.4306   8.023303 C.ar        1 UNL1     -0.0067
     19 C         -6.030775   2.009464   6.788577 C.ar        1 UNL1     -0.0516
     20 C         -7.238422   2.702754   6.644016 C.ar        1 UNL1     -0.0198
     21 C         -8.090796   2.830205   7.726163 C.ar        1 UNL1     0.1169
     22 C         -7.78089   2.242522   8.945764 C.ar        1 UNL1     -0.0198
     23 C         -6.581861   1.533402   9.085533 C.ar        1 UNL1     -0.0516
     24 O         -9.240385   3.54473   7.557935 O.3        1 UNL1     -0.5068
     25 O         -5.836463   -2.464363   8.232176 O.2        1 UNL1     -0.2917
     26 O         -5.85253   -3.400838   5.704077 O.3        1 UNL1     -0.5058
     27 O         -0.231525   -0.198159   2.541075 O.3        1 UNL1     -0.3648
     28 O         0.263026   -1.952688   -0.573284 O.3        1 UNL1     -0.3841
     29 O         -2.459183   0.359221   -0.264245 O.3        1 UNL1     -0.3863
     30 O         -2.451895   -3.314697   -0.215415 O.3        1 UNL1     -0.3829
     31 H         0.619961   -1.849385   1.81553 H        1 UNL1     0.0937
     32 H         0.0   0.0   0.0 H        1 UNL1     0.0671
     33 H         -1.867585   -1.191807   -1.416661 H        1 UNL1     0.0649
     34 H         -3.845451   -1.832184   0.053086 H        1 UNL1     0.0683
     35 H         -3.205343   -2.940917   2.14479 H        1 UNL1     0.1085
     36 H         -4.853018   -2.957942   3.399271 H        1 UNL1     0.0691
     37 H         -2.795632   0.673564   4.499056 H        1 UNL1     0.0691
     38 H         -3.412885   -1.052066   9.017222 H        1 UNL1     0.0385
     39 H         -4.980247   -0.635383   9.737146 H        1 UNL1     0.0385
     40 H         -3.72779   1.359703   8.831424 H        1 UNL1     0.0789
     41 H         -5.374717   1.931242   5.926533 H        1 UNL1     0.0623
     42 H         -7.498144   3.15488   5.690004 H        1 UNL1     0.0654
     43 H         -8.448175   2.323346   9.795534 H        1 UNL1     0.0654
     44 H         -6.376733   1.07815   10.049645 H        1 UNL1     0.0623
     45 H         -9.003269   4.455132   7.317809 H        1 UNL1     0.2921
     46 H         -5.462193   -3.922111   6.423329 H        1 UNL1     0.2922
     47 H         0.511932   0.355663   2.264649 H        1 UNL1     0.2126
     48 H         1.198468   -1.87899   -0.302638 H        1 UNL1     0.2101
     49 H         -2.019476   0.941707   -0.903903 H        1 UNL1     0.2100
     50 H         -2.688824   -3.327669   -1.165894 H        1 UNL1     0.2102
@<TRIPOS>BOND
     1     1     2    1
     2     1     6    1
     3     2     3    1
     4     3     4    1
     5     3    29    1
     6     3    33    1
     7     4     5    1
     8     5     6    1
     9     5     7    1
    10     5    35    1
    11     7     8    1
    12     8     9   ar
    13     8    13   ar
    14     9    10   ar
    15     9    36    1
    16    10    11   ar
    17    10    26    1
    18    11    12   ar
    19    11    14    1
    20    12    13   ar
    21    12    17    1
    22    13    37    1
    23    14    15    1
    24    14    25    2
    25    15    16    1
    26    15    38    1
    27    15    39    1
    28    16    17    1
    29    16    18    1
    30    16    40    1
    31    18    19   ar
    32    18    23   ar
    33    19    20   ar
    34    19    41    1
    35    20    21   ar
    36    20    42    1
    37    21    22   ar
    38    21    24    1
    39    22    23   ar
    40    22    43    1
    41    23    44    1
    42    24    45    1
    43    26    46    1
    44    27    47    1
    45    28    48    1
    46    29    49    1
    47    30    50    1
    48     1    31    1
    49     1    27    1
    50     2    32    1
    51     2    28    1
    52     4    34    1
    53     4    30    1
