@<TRIPOS>MOLECULE
*****
 50 53 0 0 0
SMALL
GASTEIGER

@<TRIPOS>ATOM
     1 C         -0.326516   -1.366727   1.672199 C.3        1 UNL1     0.1889
     2 C         -0.462171   -0.979453   0.175016 C.3        1 UNL1     0.1342
     3 C         -1.90488   -0.954248   -0.35264 C.3        1 UNL1     0.1174
     4 C         -2.789287   -2.028   0.286107 C.3        1 UNL1     0.1456
     5 C         -2.632256   -2.088363   1.816487 C.3        1 UNL1     0.2326
     6 O         -1.266222   -2.314838   2.156381 O.3        1 UNL1     -0.3076
     7 O         -3.204383   -0.956305   2.496513 O.3        1 UNL1     -0.4605
     8 C         -3.721832   -1.203329   3.755383 C.ar        1 UNL1     0.1310
     9 C         -4.540177   -2.285376   4.097124 C.ar        1 UNL1     0.0226
     10 C         -5.001196   -2.458579   5.407606 C.ar        1 UNL1     0.1343
     11 C         -4.63517   -1.566128   6.414282 C.ar        1 UNL1     0.1007
     12 C         -3.852048   -0.459087   6.076695 C.ar        1 UNL1     0.1389
     13 C         -3.390799   -0.283705   4.758393 C.ar        1 UNL1     0.0229
     14 C         -5.024544   -1.747431   7.83191 C.2        1 UNL1     0.1740
     15 C         -4.361723   -0.823102   8.8106 C.3        1 UNL1     0.0520
     16 C         -4.288766   0.56481   8.189043 C.3        1 UNL1     0.1322
     17 O         -3.522634   0.538661   6.964531 O.3        1 UNL1     -0.4828
     18 C         -5.647405   1.259976   8.072559 C.ar        1 UNL1     -0.0067
     19 C         -5.772113   2.404695   7.258753 C.ar        1 UNL1     -0.0516
     20 C         -6.988346   3.091992   7.167308 C.ar        1 UNL1     -0.0198
     21 C         -8.082794   2.64992   7.888822 C.ar        1 UNL1     0.1169
     22 C         -8.000248   1.506421   8.672682 C.ar        1 UNL1     -0.0198
     23 C         -6.789173   0.808281   8.749856 C.ar        1 UNL1     -0.0516
     24 O         -9.240168   3.366687   7.804381 O.3        1 UNL1     -0.5068
     25 O         -5.775616   -2.639222   8.218026 O.2        1 UNL1     -0.2917
     26 O         -5.797041   -3.534101   5.674944 O.3        1 UNL1     -0.5058
     27 O         -0.217737   -0.248026   2.537914 O.3        1 UNL1     -0.3648
     28 O         0.265225   -1.940472   -0.612412 O.3        1 UNL1     -0.3841
     29 O         -2.461475   0.357486   -0.244522 O.3        1 UNL1     -0.3863
     30 O         -2.44416   -3.316653   -0.26702 O.3        1 UNL1     -0.3829
     31 H         0.634342   -1.882517   1.776081 H        1 UNL1     0.0937
     32 H         0.0   0.0   0.0 H        1 UNL1     0.0671
     33 H         -1.871774   -1.169269   -1.429854 H        1 UNL1     0.0649
     34 H         -3.840235   -1.843478   0.037388 H        1 UNL1     0.0683
     35 H         -3.186275   -2.990784   2.103852 H        1 UNL1     0.1085
     36 H         -4.814092   -3.044331   3.372501 H        1 UNL1     0.0691
     37 H         -2.783388   0.587072   4.521132 H        1 UNL1     0.0691
     38 H         -3.360559   -1.218147   9.013423 H        1 UNL1     0.0385
     39 H         -4.927654   -0.827565   9.748406 H        1 UNL1     0.0385
     40 H         -3.698076   1.193402   8.8691 H        1 UNL1     0.0789
     41 H         -4.925314   2.777113   6.689642 H        1 UNL1     0.0623
     42 H         -7.068621   3.98031   6.54565 H        1 UNL1     0.0654
     43 H         -8.855266   1.142826   9.230044 H        1 UNL1     0.0654
     44 H         -6.76348   -0.087041   9.36352 H        1 UNL1     0.0623
     45 H         -9.075511   4.257373   8.154071 H        1 UNL1     0.2921
     46 H         -5.409476   -4.051436   6.398526 H        1 UNL1     0.2922
     47 H         0.511586   0.322465   2.257758 H        1 UNL1     0.2126
     48 H         1.210218   -1.820616   -0.397112 H        1 UNL1     0.2101
     49 H         -2.030741   0.952084   -0.879121 H        1 UNL1     0.2100
     50 H         -2.706747   -3.319773   -1.210816 H        1 UNL1     0.2102
@<TRIPOS>BOND
     1     1     2    1
     2     1     6    1
     3     2     3    1
     4     3     4    1
     5     3    29    1
     6     3    33    1
     7     4     5    1
     8     5     6    1
     9     5     7    1
    10     5    35    1
    11     7     8    1
    12     8     9   ar
    13     8    13   ar
    14     9    10   ar
    15     9    36    1
    16    10    11   ar
    17    10    26    1
    18    11    12   ar
    19    11    14    1
    20    12    13   ar
    21    12    17    1
    22    13    37    1
    23    14    15    1
    24    14    25    2
    25    15    16    1
    26    15    38    1
    27    15    39    1
    28    16    17    1
    29    16    18    1
    30    16    40    1
    31    18    19   ar
    32    18    23   ar
    33    19    20   ar
    34    19    41    1
    35    20    21   ar
    36    20    42    1
    37    21    22   ar
    38    21    24    1
    39    22    23   ar
    40    22    43    1
    41    23    44    1
    42    24    45    1
    43    26    46    1
    44    27    47    1
    45    28    48    1
    46    29    49    1
    47    30    50    1
    48     1    31    1
    49     1    27    1
    50     2    32    1
    51     2    28    1
    52     4    34    1
    53     4    30    1
