@<TRIPOS>MOLECULE
*****
 50 53 0 0 0
SMALL
GASTEIGER

@<TRIPOS>ATOM
     1 C         -2.13329   -0.467834   -0.031794 C.3        1 UNL1     0.1889
     2 C         -0.836729   -0.042206   0.708283 C.3        1 UNL1     0.1342
     3 C         -0.447772   -0.943404   1.890238 C.3        1 UNL1     0.1174
     4 C         -1.662416   -1.493037   2.642343 C.3        1 UNL1     0.1456
     5 C         -2.740096   -2.051368   1.695118 C.3        1 UNL1     0.2326
     6 O         -3.150387   -1.041158   0.776419 O.3        1 UNL1     -0.3076
     7 O         -2.35642   -3.2799   1.051052 O.3        1 UNL1     -0.4605
     8 C         -2.959439   -3.540142   -0.166392 C.ar        1 UNL1     0.1310
     9 C         -4.333064   -3.709868   -0.370474 C.ar        1 UNL1     0.0226
     10 C         -4.850196   -3.953756   -1.648361 C.ar        1 UNL1     0.1343
     11 C         -4.007756   -4.010221   -2.757842 C.ar        1 UNL1     0.1007
     12 C         -2.630145   -3.883121   -2.560818 C.ar        1 UNL1     0.1389
     13 C         -2.110168   -3.640532   -1.275437 C.ar        1 UNL1     0.0229
     14 C         -4.508514   -4.181583   -4.141326 C.2        1 UNL1     0.1740
     15 C         -3.490473   -3.996122   -5.227947 C.3        1 UNL1     0.0520
     16 C         -2.185785   -4.641081   -4.780985 C.3        1 UNL1     0.1322
     17 O         -1.701543   -4.029361   -3.565098 O.3        1 UNL1     -0.4828
     18 C         -2.234888   -6.170482   -4.745699 C.ar        1 UNL1     -0.0067
     19 C         -2.168457   -6.893581   -5.954387 C.ar        1 UNL1     -0.0516
     20 C         -2.258329   -8.290662   -5.9615 C.ar        1 UNL1     -0.0198
     21 C         -2.421789   -8.974283   -4.769959 C.ar        1 UNL1     0.1169
     22 C         -2.457046   -8.292458   -3.560533 C.ar        1 UNL1     -0.0198
     23 C         -2.348667   -6.896668   -3.551503 C.ar        1 UNL1     -0.0516
     24 O         -2.543578   -10.331894   -4.81956 O.3        1 UNL1     -0.5068
     25 O         -5.689356   -4.382393   -4.41294 O.2        1 UNL1     -0.2917
     26 O         -6.199119   -4.111236   -1.779474 O.3        1 UNL1     -0.5058
     27 O         -1.891571   -1.241187   -1.19639 O.3        1 UNL1     -0.3648
     28 O         -1.023259   1.287805   1.226917 O.3        1 UNL1     -0.3841
     29 O         0.453937   -1.969418   1.470299 O.3        1 UNL1     -0.3863
     30 O         -2.244981   -0.43732   3.437182 O.3        1 UNL1     -0.3829
     31 H         -2.594082   0.451486   -0.409418 H        1 UNL1     0.0937
     32 H         0.0   0.0   0.0 H        1 UNL1     0.0671
     33 H         0.11912   -0.331755   2.605946 H        1 UNL1     0.0649
     34 H         -1.347776   -2.280354   3.33627 H        1 UNL1     0.0683
     35 H         -3.594715   -2.24929   2.354156 H        1 UNL1     0.1085
     36 H         -5.045484   -3.62179   0.442435 H        1 UNL1     0.0691
     37 H         -1.033819   -3.546438   -1.148498 H        1 UNL1     0.0691
     38 H         -3.365476   -2.919355   -5.384388 H        1 UNL1     0.0385
     39 H         -3.872369   -4.434567   -6.156225 H        1 UNL1     0.0385
     40 H         -1.426682   -4.392028   -5.534812 H        1 UNL1     0.0789
     41 H         -2.049605   -6.379673   -6.903821 H        1 UNL1     0.0623
     42 H         -2.217717   -8.836076   -6.90112 H        1 UNL1     0.0654
     43 H         -2.56964   -8.818986   -2.620321 H        1 UNL1     0.0654
     44 H         -2.369514   -6.397244   -2.587664 H        1 UNL1     0.0623
     45 H         -1.669553   -10.724194   -4.661772 H        1 UNL1     0.2921
     46 H         -6.510913   -3.605036   -2.546258 H        1 UNL1     0.2922
     47 H         -1.844704   -2.180709   -0.970645 H        1 UNL1     0.2126
     48 H         -0.644311   1.29273   2.126976 H        1 UNL1     0.2101
     49 H         -0.030047   -2.654833   0.982691 H        1 UNL1     0.2100
     50 H         -3.043322   -0.114011   2.970452 H        1 UNL1     0.2102
@<TRIPOS>BOND
     1     1     2    1
     2     1     6    1
     3     2     3    1
     4     3     4    1
     5     3    29    1
     6     3    33    1
     7     4     5    1
     8     5     6    1
     9     5     7    1
    10     5    35    1
    11     7     8    1
    12     8     9   ar
    13     8    13   ar
    14     9    10   ar
    15     9    36    1
    16    10    11   ar
    17    10    26    1
    18    11    12   ar
    19    11    14    1
    20    12    13   ar
    21    12    17    1
    22    13    37    1
    23    14    15    1
    24    14    25    2
    25    15    16    1
    26    15    38    1
    27    15    39    1
    28    16    17    1
    29    16    18    1
    30    16    40    1
    31    18    19   ar
    32    18    23   ar
    33    19    20   ar
    34    19    41    1
    35    20    21   ar
    36    20    42    1
    37    21    22   ar
    38    21    24    1
    39    22    23   ar
    40    22    43    1
    41    23    44    1
    42    24    45    1
    43    26    46    1
    44    27    47    1
    45    28    48    1
    46    29    49    1
    47    30    50    1
    48     1    31    1
    49     1    27    1
    50     2    32    1
    51     2    28    1
    52     4    34    1
    53     4    30    1
