@<TRIPOS>MOLECULE
*****
 50 53 0 0 0
SMALL
GASTEIGER

@<TRIPOS>ATOM
     1 C         1.019047   0.857313   -1.73129 C.3        1 UNL1     0.1889
     2 C         0.97995   -0.071482   -0.488006 C.3        1 UNL1     0.1342
     3 C         2.07829   0.20139   0.551059 C.3        1 UNL1     0.1174
     4 C         3.39891   0.644339   -0.083666 C.3        1 UNL1     0.1456
     5 C         3.2027   1.729623   -1.157921 C.3        1 UNL1     0.2326
     6 O         2.30956   1.260438   -2.165411 O.3        1 UNL1     -0.3076
     7 O         2.824753   3.009012   -0.617885 O.3        1 UNL1     -0.4605
     8 C         1.468741   3.281651   -0.597229 C.ar        1 UNL1     0.1310
     9 C         0.523851   2.632797   0.204938 C.ar        1 UNL1     0.0226
     10 C         -0.828282   2.993554   0.166285 C.ar        1 UNL1     0.1343
     11 C         -1.264959   4.029072   -0.658855 C.ar        1 UNL1     0.1007
     12 C         -0.337562   4.656859   -1.494679 C.ar        1 UNL1     0.1389
     13 C         1.021498   4.292152   -1.457566 C.ar        1 UNL1     0.0229
     14 C         -2.666765   4.507347   -0.677479 C.2        1 UNL1     0.1740
     15 C         -2.912294   5.76839   -1.452744 C.3        1 UNL1     0.0520
     16 C         -2.084143   5.718115   -2.7293 C.3        1 UNL1     0.1322
     17 O         -0.676126   5.613557   -2.423318 O.3        1 UNL1     -0.4828
     18 C         -2.588775   4.696572   -3.751317 C.ar        1 UNL1     -0.0067
     19 C         -2.293068   4.879925   -5.117755 C.ar        1 UNL1     -0.0516
     20 C         -2.779078   3.990504   -6.083513 C.ar        1 UNL1     -0.0198
     21 C         -3.566196   2.920415   -5.697271 C.ar        1 UNL1     0.1169
     22 C         -3.846812   2.694457   -4.35599 C.ar        1 UNL1     -0.0198
     23 C         -3.345591   3.57327   -3.38825 C.ar        1 UNL1     -0.0516
     24 O         -4.052966   2.096869   -6.6695 O.3        1 UNL1     -0.5068
     25 O         -3.572229   3.972147   -0.043303 O.2        1 UNL1     -0.2917
     26 O         -1.699084   2.320698   0.972854 O.3        1 UNL1     -0.5058
     27 O         0.128633   1.95827   -1.64273 O.3        1 UNL1     -0.3648
     28 O         1.137262   -1.432492   -0.930284 O.3        1 UNL1     -0.3841
     29 O         1.614224   1.10836   1.553146 O.3        1 UNL1     -0.3863
     30 O         4.039785   -0.498797   -0.69047 O.3        1 UNL1     -0.3829
     31 H         0.637787   0.269208   -2.573224 H        1 UNL1     0.0937
     32 H         0.0   0.0   0.0 H        1 UNL1     0.0671
     33 H         2.280261   -0.740124   1.080663 H        1 UNL1     0.0649
     34 H         4.078223   1.019615   0.689705 H        1 UNL1     0.0683
     35 H         4.191167   1.820917   -1.625335 H        1 UNL1     0.1085
     36 H         0.80871   1.857986   0.908247 H        1 UNL1     0.0691
     37 H         1.723304   4.795508   -2.119075 H        1 UNL1     0.0691
     38 H         -2.611634   6.610123   -0.819801 H        1 UNL1     0.0385
     39 H         -3.984279   5.86058   -1.657998 H        1 UNL1     0.0385
     40 H         -2.186568   6.695331   -3.220296 H        1 UNL1     0.0789
     41 H         -1.684952   5.717271   -5.447448 H        1 UNL1     0.0623
     42 H         -2.554017   4.149379   -7.135234 H        1 UNL1     0.0654
     43 H         -4.449689   1.851069   -4.041113 H        1 UNL1     0.0654
     44 H         -3.57572   3.360384   -2.348747 H        1 UNL1     0.0623
     45 H         -3.500211   1.299251   -6.700877 H        1 UNL1     0.2921
     46 H         -2.47299   2.878493   1.149902 H        1 UNL1     0.2922
     47 H         -0.666375   1.707275   -1.151993 H        1 UNL1     0.2126
     48 H         1.150733   -1.987811   -0.127058 H        1 UNL1     0.2101
     49 H         0.706826   0.879804   1.810408 H        1 UNL1     0.2100
     50 H         3.803333   -1.29114   -0.165116 H        1 UNL1     0.2102
@<TRIPOS>BOND
     1     1     2    1
     2     1     6    1
     3     2     3    1
     4     3     4    1
     5     3    29    1
     6     3    33    1
     7     4     5    1
     8     5     6    1
     9     5     7    1
    10     5    35    1
    11     7     8    1
    12     8     9   ar
    13     8    13   ar
    14     9    10   ar
    15     9    36    1
    16    10    11   ar
    17    10    26    1
    18    11    12   ar
    19    11    14    1
    20    12    13   ar
    21    12    17    1
    22    13    37    1
    23    14    15    1
    24    14    25    2
    25    15    16    1
    26    15    38    1
    27    15    39    1
    28    16    17    1
    29    16    18    1
    30    16    40    1
    31    18    19   ar
    32    18    23   ar
    33    19    20   ar
    34    19    41    1
    35    20    21   ar
    36    20    42    1
    37    21    22   ar
    38    21    24    1
    39    22    23   ar
    40    22    43    1
    41    23    44    1
    42    24    45    1
    43    26    46    1
    44    27    47    1
    45    28    48    1
    46    29    49    1
    47    30    50    1
    48     1    31    1
    49     1    27    1
    50     2    32    1
    51     2    28    1
    52     4    34    1
    53     4    30    1
