@<TRIPOS>MOLECULE
*****
 50 53 0 0 0
SMALL
GASTEIGER

@<TRIPOS>ATOM
     1 C         -0.325392   -1.331498   1.700599 C.3        1 UNL1     0.1889
     2 C         -0.460547   -0.976354   0.195426 C.3        1 UNL1     0.1342
     3 C         -1.902876   -0.964981   -0.333744 C.3        1 UNL1     0.1174
     4 C         -2.785859   -2.026533   0.32699 C.3        1 UNL1     0.1456
     5 C         -2.629943   -2.054097   1.858425 C.3        1 UNL1     0.2326
     6 O         -1.263776   -2.27082   2.204092 O.3        1 UNL1     -0.3076
     7 O         -3.204651   -0.908894   2.51382 O.3        1 UNL1     -0.4605
     8 C         -3.710344   -1.127037   3.782763 C.ar        1 UNL1     0.1310
     9 C         -4.523979   -2.201817   4.157125 C.ar        1 UNL1     0.0226
     10 C         -4.972887   -2.344881   5.475426 C.ar        1 UNL1     0.1343
     11 C         -4.599092   -1.428654   6.457591 C.ar        1 UNL1     0.1007
     12 C         -3.820678   -0.328834   6.087116 C.ar        1 UNL1     0.1389
     13 C         -3.371614   -0.183775   4.760944 C.ar        1 UNL1     0.0229
     14 C         -4.975377   -1.577219   7.882544 C.2        1 UNL1     0.1740
     15 C         -4.3051   -0.629406   8.833295 C.3        1 UNL1     0.0520
     16 C         -4.239798   0.74367   8.178807 C.3        1 UNL1     0.1322
     17 O         -3.484722   0.689832   6.948347 O.3        1 UNL1     -0.4828
     18 C         -5.600454   1.434212   8.058415 C.ar        1 UNL1     -0.0067
     19 C         -5.984007   1.998326   6.824366 C.ar        1 UNL1     -0.0516
     20 C         -7.200701   2.678211   6.692561 C.ar        1 UNL1     -0.0198
     21 C         -8.037405   2.8069   7.786724 C.ar        1 UNL1     0.1169
     22 C         -7.702665   2.233347   9.006488 C.ar        1 UNL1     -0.0198
     23 C         -6.494502   1.537505   9.133776 C.ar        1 UNL1     -0.0516
     24 O         -9.196633   3.508383   7.630161 O.3        1 UNL1     -0.5068
     25 O         -5.721621   -2.460671   8.296207 O.2        1 UNL1     -0.2917
     26 O         -5.764703   -3.41485   5.775054 O.3        1 UNL1     -0.5058
     27 O         -0.219319   -0.194469   2.542442 O.3        1 UNL1     -0.3648
     28 O         0.269208   -1.952555   -0.57086 O.3        1 UNL1     -0.3841
     29 O         -2.461918   0.347739   -0.253933 O.3        1 UNL1     -0.3863
     30 O         -2.437969   -3.326012   -0.198381 O.3        1 UNL1     -0.3829
     31 H         0.63631   -1.843219   1.816144 H        1 UNL1     0.0937
     32 H         0.0   0.0   0.0 H        1 UNL1     0.0671
     33 H         -1.868521   -1.20277   -1.406123 H        1 UNL1     0.0649
     34 H         -3.836938   -1.849244   0.073608 H        1 UNL1     0.0683
     35 H         -3.182566   -2.951216   2.16447 H        1 UNL1     0.1085
     36 H         -4.803314   -2.977867   3.452967 H        1 UNL1     0.0691
     37 H         -2.76765   0.681972   4.497883 H        1 UNL1     0.0691
     38 H         -3.301566   -1.018337   9.03622 H        1 UNL1     0.0385
     39 H         -4.86253   -0.612629   9.776041 H        1 UNL1     0.0385
     40 H         -3.643913   1.388748   8.838591 H        1 UNL1     0.0789
     41 H         -5.340663   1.918886   5.952902 H        1 UNL1     0.0623
     42 H         -7.47977   3.119112   5.738759 H        1 UNL1     0.0654
     43 H         -8.35745   2.315166   9.865832 H        1 UNL1     0.0654
     44 H         -6.269829   1.093024   10.098558 H        1 UNL1     0.0623
     45 H         -8.972744   4.416666   7.370135 H        1 UNL1     0.2921
     46 H         -5.357953   -3.927874   6.491135 H        1 UNL1     0.2922
     47 H         0.522114   0.360743   2.263378 H        1 UNL1     0.2126
     48 H         1.206344   -1.870295   -0.308673 H        1 UNL1     0.2101
     49 H         -2.025648   0.931733   -0.894568 H        1 UNL1     0.2100
     50 H         -2.673855   -3.339873   -1.149106 H        1 UNL1     0.2102
@<TRIPOS>BOND
     1     1     2    1
     2     1     6    1
     3     2     3    1
     4     3     4    1
     5     3    29    1
     6     3    33    1
     7     4     5    1
     8     5     6    1
     9     5     7    1
    10     5    35    1
    11     7     8    1
    12     8     9   ar
    13     8    13   ar
    14     9    10   ar
    15     9    36    1
    16    10    11   ar
    17    10    26    1
    18    11    12   ar
    19    11    14    1
    20    12    13   ar
    21    12    17    1
    22    13    37    1
    23    14    15    1
    24    14    25    2
    25    15    16    1
    26    15    38    1
    27    15    39    1
    28    16    17    1
    29    16    18    1
    30    16    40    1
    31    18    19   ar
    32    18    23   ar
    33    19    20   ar
    34    19    41    1
    35    20    21   ar
    36    20    42    1
    37    21    22   ar
    38    21    24    1
    39    22    23   ar
    40    22    43    1
    41    23    44    1
    42    24    45    1
    43    26    46    1
    44    27    47    1
    45    28    48    1
    46    29    49    1
    47    30    50    1
    48     1    31    1
    49     1    27    1
    50     2    32    1
    51     2    28    1
    52     4    34    1
    53     4    30    1
