@<TRIPOS>MOLECULE
*****
 50 53 0 0 0
SMALL
GASTEIGER

@<TRIPOS>ATOM
     1 C         -0.144916   0.898803   1.985436 C.3        1 UNL1     0.1889
     2 C         0.356303   -0.206058   1.016932 C.3        1 UNL1     0.1342
     3 C         -0.048568   -1.635111   1.409811 C.3        1 UNL1     0.1174
     4 C         -0.084021   -1.846451   2.925461 C.3        1 UNL1     0.1456
     5 C         -0.817652   -0.711259   3.662679 C.3        1 UNL1     0.2326
     6 O         -0.206812   0.540529   3.358099 O.3        1 UNL1     -0.3076
     7 O         -2.240679   -0.713731   3.447479 O.3        1 UNL1     -0.4605
     8 C         -3.01349   -0.253137   4.498262 C.ar        1 UNL1     0.1310
     9 C         -2.851984   -0.611556   5.840928 C.ar        1 UNL1     0.0226
     10 C         -3.676907   -0.076035   6.837232 C.ar        1 UNL1     0.1343
     11 C         -4.668927   0.850046   6.517684 C.ar        1 UNL1     0.1007
     12 C         -4.86661   1.184511   5.175359 C.ar        1 UNL1     0.1389
     13 C         -4.038748   0.643895   4.173455 C.ar        1 UNL1     0.0229
     14 C         -5.513341   1.510591   7.539839 C.2        1 UNL1     0.1740
     15 C         -6.370284   2.638185   7.044129 C.3        1 UNL1     0.0520
     16 C         -6.941682   2.248771   5.687731 C.3        1 UNL1     0.1322
     17 O         -5.882475   2.001822   4.736853 O.3        1 UNL1     -0.4828
     18 C         -8.000306   1.145598   5.758786 C.ar        1 UNL1     -0.0067
     19 C         -7.908959   0.040941   4.887234 C.ar        1 UNL1     -0.0516
     20 C         -8.886069   -0.961645   4.893434 C.ar        1 UNL1     -0.0198
     21 C         -9.960858   -0.867623   5.759353 C.ar        1 UNL1     0.1169
     22 C         -10.060947   0.190976   6.652768 C.ar        1 UNL1     -0.0198
     23 C         -9.074297   1.184218   6.659589 C.ar        1 UNL1     -0.0516
     24 O         -10.912561   -1.843473   5.710584 O.3        1 UNL1     -0.5068
     25 O         -5.474431   1.227928   8.734441 O.2        1 UNL1     -0.2917
     26 O         -3.468053   -0.467523   8.127465 O.3        1 UNL1     -0.5058
     27 O         -1.340712   1.528754   1.554135 O.3        1 UNL1     -0.3648
     28 O         1.794901   -0.162925   0.981128 O.3        1 UNL1     -0.3841
     29 O         -1.270129   -2.010049   0.770013 O.3        1 UNL1     -0.3863
     30 O         1.26889   -1.925629   3.424511 O.3        1 UNL1     -0.3829
     31 H         0.604101   1.697892   1.962893 H        1 UNL1     0.0937
     32 H         0.0   0.0   0.0 H        1 UNL1     0.0671
     33 H         0.712066   -2.320772   1.011033 H        1 UNL1     0.0649
     34 H         -0.568104   -2.801261   3.158703 H        1 UNL1     0.0683
     35 H         -0.619794   -0.913139   4.722856 H        1 UNL1     0.1085
     36 H         -2.063157   -1.283527   6.160815 H        1 UNL1     0.0691
     37 H         -4.213946   0.919477   3.13574 H        1 UNL1     0.0691
     38 H         -5.734986   3.526789   6.964705 H        1 UNL1     0.0385
     39 H         -7.154816   2.843313   7.780478 H        1 UNL1     0.0385
     40 H         -7.465771   3.129407   5.292346 H        1 UNL1     0.0789
     41 H         -7.079887   -0.051328   4.191693 H        1 UNL1     0.0623
     42 H         -8.810679   -1.802403   4.208266 H        1 UNL1     0.0654
     43 H         -10.890539   0.266642   7.345562 H        1 UNL1     0.0654
     44 H         -9.17878   1.991395   7.378195 H        1 UNL1     0.0623
     45 H         -11.321462   -1.829354   4.830063 H        1 UNL1     0.2921
     46 H         -3.307036   0.313314   8.680438 H        1 UNL1     0.2922
     47 H         -1.228817   1.883886   0.661264 H        1 UNL1     0.2126
     48 H         2.039643   0.711654   0.622039 H        1 UNL1     0.2101
     49 H         -1.122564   -2.123333   -0.18245 H        1 UNL1     0.2100
     50 H         1.67823   -2.736963   3.058601 H        1 UNL1     0.2102
@<TRIPOS>BOND
     1     1     2    1
     2     1     6    1
     3     2     3    1
     4     3     4    1
     5     3    29    1
     6     3    33    1
     7     4     5    1
     8     5     6    1
     9     5     7    1
    10     5    35    1
    11     7     8    1
    12     8     9   ar
    13     8    13   ar
    14     9    10   ar
    15     9    36    1
    16    10    11   ar
    17    10    26    1
    18    11    12   ar
    19    11    14    1
    20    12    13   ar
    21    12    17    1
    22    13    37    1
    23    14    15    1
    24    14    25    2
    25    15    16    1
    26    15    38    1
    27    15    39    1
    28    16    17    1
    29    16    18    1
    30    16    40    1
    31    18    19   ar
    32    18    23   ar
    33    19    20   ar
    34    19    41    1
    35    20    21   ar
    36    20    42    1
    37    21    22   ar
    38    21    24    1
    39    22    23   ar
    40    22    43    1
    41    23    44    1
    42    24    45    1
    43    26    46    1
    44    27    47    1
    45    28    48    1
    46    29    49    1
    47    30    50    1
    48     1    31    1
    49     1    27    1
    50     2    32    1
    51     2    28    1
    52     4    34    1
    53     4    30    1
