@<TRIPOS>MOLECULE
*****
 50 53 0 0 0
SMALL
GASTEIGER

@<TRIPOS>ATOM
     1 C         -2.081173   -0.537484   -0.388119 C.3        1 UNL1     0.1889
     2 C         -0.861287   0.41027   -0.541687 C.3        1 UNL1     0.1342
     3 C         -1.106991   1.852755   -0.07336 C.3        1 UNL1     0.1174
     4 C         -2.536902   2.328515   -0.341919 C.3        1 UNL1     0.1456
     5 C         -3.593338   1.292519   0.083543 C.3        1 UNL1     0.2326
     6 O         -3.356786   0.054919   -0.583733 O.3        1 UNL1     -0.3076
     7 O         -3.715793   1.151592   1.510591 O.3        1 UNL1     -0.4605
     8 C         -3.853682   2.327327   2.226245 C.ar        1 UNL1     0.1310
     9 C         -3.784336   3.616682   1.687678 C.ar        1 UNL1     0.0226
     10 C         -3.954425   4.748112   2.494424 C.ar        1 UNL1     0.1343
     11 C         -4.221926   4.61696   3.856438 C.ar        1 UNL1     0.1007
     12 C         -4.252775   3.335668   4.413325 C.ar        1 UNL1     0.1389
     13 C         -4.079094   2.19826   3.602418 C.ar        1 UNL1     0.0229
     14 C         -4.493002   5.775244   4.739075 C.2        1 UNL1     0.1740
     15 C         -4.979966   5.440563   6.118352 C.3        1 UNL1     0.0520
     16 C         -4.20108   4.234417   6.624813 C.3        1 UNL1     0.1322
     17 O         -4.400772   3.094876   5.759573 O.3        1 UNL1     -0.4828
     18 C         -2.735679   4.537868   6.946128 C.ar        1 UNL1     -0.0067
     19 C         -1.776661   3.509379   6.842638 C.ar        1 UNL1     -0.0516
     20 C         -0.436455   3.740854   7.174646 C.ar        1 UNL1     -0.0198
     21 C         -0.044906   4.991635   7.617436 C.ar        1 UNL1     0.1169
     22 C         -0.959612   6.033594   7.697885 C.ar        1 UNL1     -0.0198
     23 C         -2.296277   5.807339   7.348327 C.ar        1 UNL1     -0.0516
     24 O         1.261252   5.169392   7.9678 O.3        1 UNL1     -0.5068
     25 O         -4.410559   6.942792   4.366892 O.2        1 UNL1     -0.2917
     26 O         -3.873872   5.977225   1.907588 O.3        1 UNL1     -0.5058
     27 O         -2.043223   -1.320789   0.794159 O.3        1 UNL1     -0.3648
     28 O         -0.500675   0.467567   -1.934304 O.3        1 UNL1     -0.3841
     29 O         -0.716505   2.016184   1.291537 O.3        1 UNL1     -0.3863
     30 O         -2.690306   2.59514   -1.752971 O.3        1 UNL1     -0.3829
     31 H         -2.01205   -1.270317   -1.199448 H        1 UNL1     0.0937
     32 H         0.0   0.0   0.0 H        1 UNL1     0.0671
     33 H         -0.440037   2.510218   -0.648369 H        1 UNL1     0.0649
     34 H         -2.722422   3.27133   0.184468 H        1 UNL1     0.0683
     35 H         -4.533479   1.694745   -0.314235 H        1 UNL1     0.1085
     36 H         -3.634856   3.784179   0.626678 H        1 UNL1     0.0691
     37 H         -4.106499   1.211903   4.060502 H        1 UNL1     0.0691
     38 H         -6.049984   5.218117   6.046889 H        1 UNL1     0.0385
     39 H         -4.854973   6.315568   6.765285 H        1 UNL1     0.0385
     40 H         -4.652347   3.935775   7.580684 H        1 UNL1     0.0789
     41 H         -2.060496   2.516409   6.506338 H        1 UNL1     0.0623
     42 H         0.291299   2.936423   7.102011 H        1 UNL1     0.0654
     43 H         -0.660751   7.02098   8.029038 H        1 UNL1     0.0654
     44 H         -2.981665   6.646918   7.41309 H        1 UNL1     0.0623
     45 H         1.747251   4.354019   7.763623 H        1 UNL1     0.2921
     46 H         -3.164662   5.973737   1.245454 H        1 UNL1     0.2922
     47 H         -1.153   -1.312721   1.172704 H        1 UNL1     0.2126
     48 H         -0.778818   -0.380666   -2.330371 H        1 UNL1     0.2101
     49 H         -1.426729   2.453199   1.787918 H        1 UNL1     0.2100
     50 H         -3.507512   3.121861   -1.873189 H        1 UNL1     0.2102
@<TRIPOS>BOND
     1     1     2    1
     2     1     6    1
     3     2     3    1
     4     3     4    1
     5     3    29    1
     6     3    33    1
     7     4     5    1
     8     5     6    1
     9     5     7    1
    10     5    35    1
    11     7     8    1
    12     8     9   ar
    13     8    13   ar
    14     9    10   ar
    15     9    36    1
    16    10    11   ar
    17    10    26    1
    18    11    12   ar
    19    11    14    1
    20    12    13   ar
    21    12    17    1
    22    13    37    1
    23    14    15    1
    24    14    25    2
    25    15    16    1
    26    15    38    1
    27    15    39    1
    28    16    17    1
    29    16    18    1
    30    16    40    1
    31    18    19   ar
    32    18    23   ar
    33    19    20   ar
    34    19    41    1
    35    20    21   ar
    36    20    42    1
    37    21    22   ar
    38    21    24    1
    39    22    23   ar
    40    22    43    1
    41    23    44    1
    42    24    45    1
    43    26    46    1
    44    27    47    1
    45    28    48    1
    46    29    49    1
    47    30    50    1
    48     1    31    1
    49     1    27    1
    50     2    32    1
    51     2    28    1
    52     4    34    1
    53     4    30    1
