@<TRIPOS>MOLECULE
*****
 50 53 0 0 0
SMALL
GASTEIGER

@<TRIPOS>ATOM
     1 C         -0.332381   -1.328248   1.701788 C.3        1 UNL1     0.1889
     2 C         -0.462616   -0.975329   0.195659 C.3        1 UNL1     0.1342
     3 C         -1.903383   -0.962596   -0.337721 C.3        1 UNL1     0.1174
     4 C         -2.789914   -2.021722   0.322152 C.3        1 UNL1     0.1456
     5 C         -2.638492   -2.047052   1.854077 C.3        1 UNL1     0.2326
     6 O         -1.273669   -2.265314   2.204063 O.3        1 UNL1     -0.3076
     7 O         -3.213337   -0.899911   2.505952 O.3        1 UNL1     -0.4605
     8 C         -3.723049   -1.115228   3.773769 C.ar        1 UNL1     0.1310
     9 C         -4.539422   -2.188151   4.147495 C.ar        1 UNL1     0.0226
     10 C         -4.992378   -2.328396   5.464713 C.ar        1 UNL1     0.1343
     11 C         -4.620028   -1.411159   6.446484 C.ar        1 UNL1     0.1007
     12 C         -3.838848   -0.313136   6.076502 C.ar        1 UNL1     0.1389
     13 C         -3.38571   -0.170909   4.751411 C.ar        1 UNL1     0.0229
     14 C         -5.00068   -1.556844   7.870574 C.2        1 UNL1     0.1740
     15 C         -4.331709   -0.608527   8.821742 C.3        1 UNL1     0.0520
     16 C         -4.262391   0.763388   8.165236 C.3        1 UNL1     0.1322
     17 O         -3.503827   0.706403   6.937065 O.3        1 UNL1     -0.4828
     18 C         -5.621626   1.455823   8.039776 C.ar        1 UNL1     -0.0067
     19 C         -6.000723   2.018531   6.80371 C.ar        1 UNL1     -0.0516
     20 C         -7.215981   2.70007   6.667273 C.ar        1 UNL1     -0.0198
     21 C         -8.055661   2.83181   7.75879 C.ar        1 UNL1     0.1169
     22 C         -7.725349   2.259714   8.980444 C.ar        1 UNL1     -0.0198
     23 C         -6.518634   1.562225   9.112366 C.ar        1 UNL1     -0.0516
     24 O         -9.213348   3.534819   7.597727 O.3        1 UNL1     -0.5068
     25 O         -5.749481   -2.438481   8.283488 O.2        1 UNL1     -0.2917
     26 O         -5.786709   -3.396663   5.76376 O.3        1 UNL1     -0.5058
     27 O         -0.227004   -0.190025   2.542104 O.3        1 UNL1     -0.3648
     28 O         0.267858   -1.953886   -0.566929 O.3        1 UNL1     -0.3841
     29 O         -2.460632   0.351108   -0.26165 O.3        1 UNL1     -0.3863
     30 O         -2.442502   -3.322581   -0.200111 O.3        1 UNL1     -0.3829
     31 H         0.628192   -1.841258   1.820953 H        1 UNL1     0.0937
     32 H         0.0   0.0   0.0 H        1 UNL1     0.0671
     33 H         -1.866278   -1.202169   -1.409611 H        1 UNL1     0.0649
     34 H         -3.839979   -1.84323   0.065429 H        1 UNL1     0.0683
     35 H         -3.193382   -2.942827   2.159958 H        1 UNL1     0.1085
     36 H         -4.817906   -2.964907   3.443778 H        1 UNL1     0.0691
     37 H         -2.779652   0.693485   4.488712 H        1 UNL1     0.0691
     38 H         -3.329368   -0.998671   9.02821 H        1 UNL1     0.0385
     39 H         -4.891848   -0.589372   9.762835 H        1 UNL1     0.0385
     40 H         -3.667432   1.408615   8.82571 H        1 UNL1     0.0789
     41 H         -5.354973   1.936696   5.93425 H        1 UNL1     0.0623
     42 H         -7.491598   3.139858   5.711954 H        1 UNL1     0.0654
     43 H         -8.382502   2.343927   9.837748 H        1 UNL1     0.0654
     44 H         -6.29745   1.118959   10.078512 H        1 UNL1     0.0623
     45 H         -8.987305   4.442335   7.33689 H        1 UNL1     0.2921
     46 H         -5.382745   -3.90925   6.481729 H        1 UNL1     0.2922
     47 H         0.516091   0.363596   2.264303 H        1 UNL1     0.2126
     48 H         1.200754   -1.888193   -0.285643 H        1 UNL1     0.2101
     49 H         -2.021603   0.933396   -0.901953 H        1 UNL1     0.2100
     50 H         -2.675646   -3.337616   -1.151495 H        1 UNL1     0.2102
@<TRIPOS>BOND
     1     1     2    1
     2     1     6    1
     3     2     3    1
     4     3     4    1
     5     3    29    1
     6     3    33    1
     7     4     5    1
     8     5     6    1
     9     5     7    1
    10     5    35    1
    11     7     8    1
    12     8     9   ar
    13     8    13   ar
    14     9    10   ar
    15     9    36    1
    16    10    11   ar
    17    10    26    1
    18    11    12   ar
    19    11    14    1
    20    12    13   ar
    21    12    17    1
    22    13    37    1
    23    14    15    1
    24    14    25    2
    25    15    16    1
    26    15    38    1
    27    15    39    1
    28    16    17    1
    29    16    18    1
    30    16    40    1
    31    18    19   ar
    32    18    23   ar
    33    19    20   ar
    34    19    41    1
    35    20    21   ar
    36    20    42    1
    37    21    22   ar
    38    21    24    1
    39    22    23   ar
    40    22    43    1
    41    23    44    1
    42    24    45    1
    43    26    46    1
    44    27    47    1
    45    28    48    1
    46    29    49    1
    47    30    50    1
    48     1    31    1
    49     1    27    1
    50     2    32    1
    51     2    28    1
    52     4    34    1
    53     4    30    1
