@<TRIPOS>MOLECULE
*****
 50 53 0 0 0
SMALL
GASTEIGER

@<TRIPOS>ATOM
     1 C         -0.358337   -1.340062   1.687197 C.3        1 UNL1     0.1889
     2 C         -0.476278   -0.971028   0.183919 C.3        1 UNL1     0.1342
     3 C         -1.914018   -0.934331   -0.356472 C.3        1 UNL1     0.1174
     4 C         -2.817631   -1.988056   0.288715 C.3        1 UNL1     0.1456
     5 C         -2.674365   -2.030069   1.821057 C.3        1 UNL1     0.2326
     6 O         -1.314306   -2.269514   2.175702 O.3        1 UNL1     -0.3076
     7 O         -3.23753   -0.881817   2.481122 O.3        1 UNL1     -0.4605
     8 C         -3.756889   -1.102707   3.744056 C.ar        1 UNL1     0.1310
     9 C         -4.589368   -2.168306   4.102914 C.ar        1 UNL1     0.0226
     10 C         -5.051252   -2.315369   5.416283 C.ar        1 UNL1     0.1343
     11 C         -4.672137   -1.412763   6.408964 C.ar        1 UNL1     0.1007
     12 C         -3.874537   -0.321638   6.053911 C.ar        1 UNL1     0.1389
     13 C         -3.412402   -0.172519   4.73269 C.ar        1 UNL1     0.0229
     14 C         -5.062375   -1.567265   7.829526 C.2        1 UNL1     0.1740
     15 C         -4.386094   -0.637217   8.793478 C.3        1 UNL1     0.0520
     16 C         -4.295118   0.739993   8.15085 C.3        1 UNL1     0.1322
     17 O         -3.530742   0.684933   6.926199 O.3        1 UNL1     -0.4828
     18 C         -5.644392   1.451576   8.025023 C.ar        1 UNL1     -0.0067
     19 C         -6.009336   2.031284   6.792558 C.ar        1 UNL1     -0.0516
     20 C         -7.214734   2.730171   6.656407 C.ar        1 UNL1     -0.0198
     21 C         -8.058491   2.862384   7.744718 C.ar        1 UNL1     0.1169
     22 C         -7.742373   2.274077   8.962422 C.ar        1 UNL1     -0.0198
     23 C         -6.545705   1.559399   9.093856 C.ar        1 UNL1     -0.0516
     24 O         -9.205906   3.582215   7.584457 O.3        1 UNL1     -0.5068
     25 O         -5.824975   -2.442881   8.229806 O.2        1 UNL1     -0.2917
     26 O         -5.861225   -3.375876   5.700629 O.3        1 UNL1     -0.5058
     27 O         -0.242423   -0.211434   2.538988 O.3        1 UNL1     -0.3648
     28 O         0.245261   -1.95169   -0.584448 O.3        1 UNL1     -0.3841
     29 O         -2.454481   0.385759   -0.270481 O.3        1 UNL1     -0.3863
     30 O         -2.484541   -3.288275   -0.244363 O.3        1 UNL1     -0.3829
     31 H         0.594849   -1.866713   1.806174 H        1 UNL1     0.0937
     32 H         0.0   0.0   0.0 H        1 UNL1     0.0671
     33 H         -1.874573   -1.164068   -1.43043 H        1 UNL1     0.0649
     34 H         -3.863957   -1.793388   0.028509 H        1 UNL1     0.0683
     35 H         -3.242435   -2.921404   2.115502 H        1 UNL1     0.1085
     36 H         -4.874274   -2.934405   3.390144 H        1 UNL1     0.0691
     37 H         -2.793571   0.686284   4.481694 H        1 UNL1     0.0691
     38 H         -3.390124   -1.042609   9.001393 H        1 UNL1     0.0385
     39 H         -4.951012   -0.619813   9.731744 H        1 UNL1     0.0385
     40 H         -3.695271   1.370806   8.820759 H        1 UNL1     0.0789
     41 H         -5.360031   1.949375   5.925757 H        1 UNL1     0.0623
     42 H         -7.479349   3.182866   5.704012 H        1 UNL1     0.0654
     43 H         -8.402983   2.358633   9.817031 H        1 UNL1     0.0654
     44 H         -6.33562   1.103842   10.056757 H        1 UNL1     0.0623
     45 H         -8.966492   4.489155   7.333742 H        1 UNL1     0.2921
     46 H         -5.468039   -3.900651   6.41577 H        1 UNL1     0.2922
     47 H         0.509231   0.335062   2.27025 H        1 UNL1     0.2126
     48 H         1.177487   -1.900909   -0.297903 H        1 UNL1     0.2101
     49 H         -2.004641   0.968374   -0.902935 H        1 UNL1     0.2100
     50 H         -2.713006   -3.291125   -1.196995 H        1 UNL1     0.2102
@<TRIPOS>BOND
     1     1     2    1
     2     1     6    1
     3     2     3    1
     4     3     4    1
     5     3    29    1
     6     3    33    1
     7     4     5    1
     8     5     6    1
     9     5     7    1
    10     5    35    1
    11     7     8    1
    12     8     9   ar
    13     8    13   ar
    14     9    10   ar
    15     9    36    1
    16    10    11   ar
    17    10    26    1
    18    11    12   ar
    19    11    14    1
    20    12    13   ar
    21    12    17    1
    22    13    37    1
    23    14    15    1
    24    14    25    2
    25    15    16    1
    26    15    38    1
    27    15    39    1
    28    16    17    1
    29    16    18    1
    30    16    40    1
    31    18    19   ar
    32    18    23   ar
    33    19    20   ar
    34    19    41    1
    35    20    21   ar
    36    20    42    1
    37    21    22   ar
    38    21    24    1
    39    22    23   ar
    40    22    43    1
    41    23    44    1
    42    24    45    1
    43    26    46    1
    44    27    47    1
    45    28    48    1
    46    29    49    1
    47    30    50    1
    48     1    31    1
    49     1    27    1
    50     2    32    1
    51     2    28    1
    52     4    34    1
    53     4    30    1
