@<TRIPOS>MOLECULE
*****
 50 53 0 0 0
SMALL
GASTEIGER

@<TRIPOS>ATOM
     1 C         -0.358354   -1.361734   1.669751 C.3        1 UNL1     0.1889
     2 C         -0.443344   -0.989848   0.164953 C.3        1 UNL1     0.1342
     3 C         -1.863706   -1.006624   -0.420502 C.3        1 UNL1     0.1174
     4 C         -2.745107   -2.098196   0.191642 C.3        1 UNL1     0.1456
     5 C         -2.648576   -2.142474   1.727573 C.3        1 UNL1     0.2326
     6 O         -1.291995   -2.330369   2.124124 O.3        1 UNL1     -0.3076
     7 O         -3.276864   -1.020546   2.373987 O.3        1 UNL1     -0.4605
     8 C         -3.826208   -1.267974   3.61919 C.ar        1 UNL1     0.1310
     9 C         -4.626805   -2.367235   3.947777 C.ar        1 UNL1     0.0226
     10 C         -5.123228   -2.538889   5.245468 C.ar        1 UNL1     0.1343
     11 C         -4.811106   -1.627055   6.25293 C.ar        1 UNL1     0.1007
     12 C         -4.046468   -0.503676   5.927149 C.ar        1 UNL1     0.1389
     13 C         -3.549631   -0.329919   4.621625 C.ar        1 UNL1     0.0229
     14 C         -5.23902   -1.803862   7.659978 C.2        1 UNL1     0.1740
     15 C         -4.630293   -0.852788   8.648138 C.3        1 UNL1     0.0520
     16 C         -4.573706   0.530126   8.013863 C.3        1 UNL1     0.1322
     17 O         -3.769969   0.511256   6.813563 O.3        1 UNL1     -0.4828
     18 C         -5.945409   1.188769   7.848505 C.ar        1 UNL1     -0.0067
     19 C         -6.294347   1.759839   6.607403 C.ar        1 UNL1     -0.0516
     20 C         -7.521533   2.4115   6.436186 C.ar        1 UNL1     -0.0198
     21 C         -8.403345   2.505025   7.498018 C.ar        1 UNL1     0.1169
     22 C         -8.102373   1.923518   8.722805 C.ar        1 UNL1     -0.0198
     23 C         -6.883135   1.255758   8.888975 C.ar        1 UNL1     -0.0516
     24 O         -9.572696   3.180013   7.304599 O.3        1 UNL1     -0.5068
     25 O         -5.978607   -2.710751   8.03287 O.2        1 UNL1     -0.2917
     26 O         -5.899227   -3.631806   5.500305 O.3        1 UNL1     -0.5058
     27 O         -0.313684   -0.233842   2.5292 O.3        1 UNL1     -0.3648
     28 O         0.339946   -1.937565   -0.584042 O.3        1 UNL1     -0.3841
     29 O         -2.458007   0.290858   -0.346477 O.3        1 UNL1     -0.3863
     30 O         -2.344632   -3.381627   -0.335724 O.3        1 UNL1     -0.3829
     31 H         0.610555   -1.851308   1.816757 H        1 UNL1     0.0937
     32 H         0.0   0.0   0.0 H        1 UNL1     0.0671
     33 H         -1.781509   -1.229102   -1.493567 H        1 UNL1     0.0649
     34 H         -3.789565   -1.94326   -0.100769 H        1 UNL1     0.0683
     35 H         -3.1902   -3.056851   2.000404 H        1 UNL1     0.1085
     36 H         -4.85894   -3.140367   3.223553 H        1 UNL1     0.0691
     37 H         -2.95762   0.553776   4.393375 H        1 UNL1     0.0691
     38 H         -3.626077   -1.219771   8.885625 H        1 UNL1     0.0385
     39 H         -5.224417   -0.862278   9.568303 H        1 UNL1     0.0385
     40 H         -4.020359   1.180665   8.704606 H        1 UNL1     0.0789
     41 H         -5.615627   1.707833   5.761067 H        1 UNL1     0.0623
     42 H         -7.773988   2.858201   5.477679 H        1 UNL1     0.0654
     43 H         -8.792108   1.977785   9.55661 H        1 UNL1     0.0654
     44 H         -6.685357   0.804004   9.856263 H        1 UNL1     0.0623
     45 H         -9.361521   4.096718   7.06424 H        1 UNL1     0.2921
     46 H         -5.507944   -4.14448   6.225201 H        1 UNL1     0.2922
     47 H         0.424124   0.342924   2.286628 H        1 UNL1     0.2126
     48 H         1.259859   -1.85234   -0.267453 H        1 UNL1     0.2101
     49 H         -2.011712   0.893874   -0.962096 H        1 UNL1     0.2100
     50 H         -2.542729   -3.388498   -1.295111 H        1 UNL1     0.2102
@<TRIPOS>BOND
     1     1     2    1
     2     1     6    1
     3     2     3    1
     4     3     4    1
     5     3    29    1
     6     3    33    1
     7     4     5    1
     8     5     6    1
     9     5     7    1
    10     5    35    1
    11     7     8    1
    12     8     9   ar
    13     8    13   ar
    14     9    10   ar
    15     9    36    1
    16    10    11   ar
    17    10    26    1
    18    11    12   ar
    19    11    14    1
    20    12    13   ar
    21    12    17    1
    22    13    37    1
    23    14    15    1
    24    14    25    2
    25    15    16    1
    26    15    38    1
    27    15    39    1
    28    16    17    1
    29    16    18    1
    30    16    40    1
    31    18    19   ar
    32    18    23   ar
    33    19    20   ar
    34    19    41    1
    35    20    21   ar
    36    20    42    1
    37    21    22   ar
    38    21    24    1
    39    22    23   ar
    40    22    43    1
    41    23    44    1
    42    24    45    1
    43    26    46    1
    44    27    47    1
    45    28    48    1
    46    29    49    1
    47    30    50    1
    48     1    31    1
    49     1    27    1
    50     2    32    1
    51     2    28    1
    52     4    34    1
    53     4    30    1
