@<TRIPOS>MOLECULE
*****
 50 53 0 0 0
SMALL
GASTEIGER

@<TRIPOS>ATOM
     1 C         1.643318   -0.25077   1.416836 C.3        1 UNL1     0.1889
     2 C         0.220598   -0.591297   0.897366 C.3        1 UNL1     0.1342
     3 C         -0.90365   -0.383019   1.923597 C.3        1 UNL1     0.1174
     4 C         -0.468409   -0.707555   3.354806 C.3        1 UNL1     0.1456
     5 C         0.894252   -0.086594   3.712476 C.3        1 UNL1     0.2326
     6 O         1.886664   -0.526921   2.788302 O.3        1 UNL1     -0.3076
     7 O         0.85157   1.344631   3.857715 O.3        1 UNL1     -0.4605
     8 C         1.784984   1.894789   4.71771 C.ar        1 UNL1     0.1310
     9 C         3.15641   1.61834   4.709491 C.ar        1 UNL1     0.0226
     10 C         4.025711   2.241329   5.612876 C.ar        1 UNL1     0.1343
     11 C         3.547666   3.174715   6.531627 C.ar        1 UNL1     0.1007
     12 C         2.174203   3.428388   6.576722 C.ar        1 UNL1     0.1389
     13 C         1.299963   2.799869   5.670025 C.ar        1 UNL1     0.0229
     14 C         4.433001   3.924659   7.452452 C.2        1 UNL1     0.1740
     15 C         3.78219   5.043675   8.211267 C.3        1 UNL1     0.0520
     16 C         2.399053   4.585723   8.653045 C.3        1 UNL1     0.1322
     17 O         1.582145   4.246383   7.510863 O.3        1 UNL1     -0.4828
     18 C         2.424428   3.521983   9.75329 C.ar        1 UNL1     -0.0067
     19 C         2.698089   2.181028   9.413933 C.ar        1 UNL1     -0.0516
     20 C         2.682318   1.175899   10.38832 C.ar        1 UNL1     -0.0198
     21 C         2.387727   1.496971   11.701315 C.ar        1 UNL1     0.1169
     22 C         2.146911   2.81349   12.072292 C.ar        1 UNL1     -0.0198
     23 C         2.180773   3.821554   11.101356 C.ar        1 UNL1     -0.0516
     24 O         2.344366   0.485932   12.61582 O.3        1 UNL1     -0.5068
     25 O         5.639924   3.718015   7.547955 O.2        1 UNL1     -0.2917
     26 O         5.352099   1.927102   5.553384 O.3        1 UNL1     -0.5058
     27 O         2.079078   1.051206   1.059402 O.3        1 UNL1     -0.3648
     28 O         0.196023   -1.977821   0.510515 O.3        1 UNL1     -0.3841
     29 O         -1.467601   0.924159   1.799589 O.3        1 UNL1     -0.3863
     30 O         -0.380335   -2.140711   3.509717 O.3        1 UNL1     -0.3829
     31 H         2.335628   -0.9198   0.894166 H        1 UNL1     0.0937
     32 H         -0.0   0.0   0.0 H        1 UNL1     0.0671
     33 H         -1.718307   -1.077122   1.674048 H        1 UNL1     0.0649
     34 H         -1.224379   -0.35426   4.064801 H        1 UNL1     0.0683
     35 H         1.141924   -0.533526   4.683449 H        1 UNL1     0.1085
     36 H         3.597943   0.944612   3.983365 H        1 UNL1     0.0691
     37 H         0.234782   3.013629   5.726497 H        1 UNL1     0.0691
     38 H         3.716746   5.905689   7.538827 H        1 UNL1     0.0385
     39 H         4.417728   5.319231   9.059759 H        1 UNL1     0.0385
     40 H         1.897941   5.454728   9.100524 H        1 UNL1     0.0789
     41 H         2.923147   1.901856   8.38872 H        1 UNL1     0.0623
     42 H         2.883292   0.143776   10.112015 H        1 UNL1     0.0654
     43 H         1.929992   3.07819   13.100295 H        1 UNL1     0.0654
     44 H         1.998292   4.840647   11.428459 H        1 UNL1     0.0623
     45 H         2.866498   0.750489   13.390484 H        1 UNL1     0.2921
     46 H         5.715592   1.886565   6.452073 H        1 UNL1     0.2922
     47 H         3.036497   1.127389   1.175181 H        1 UNL1     0.2126
     48 H         -0.310859   -2.02675   -0.322798 H        1 UNL1     0.2101
     49 H         -2.410761   0.899589   2.026836 H        1 UNL1     0.2100
     50 H         -0.603663   -2.551324   2.648767 H        1 UNL1     0.2102
@<TRIPOS>BOND
     1     1     2    1
     2     1     6    1
     3     2     3    1
     4     3     4    1
     5     3    29    1
     6     3    33    1
     7     4     5    1
     8     5     6    1
     9     5     7    1
    10     5    35    1
    11     7     8    1
    12     8     9   ar
    13     8    13   ar
    14     9    10   ar
    15     9    36    1
    16    10    11   ar
    17    10    26    1
    18    11    12   ar
    19    11    14    1
    20    12    13   ar
    21    12    17    1
    22    13    37    1
    23    14    15    1
    24    14    25    2
    25    15    16    1
    26    15    38    1
    27    15    39    1
    28    16    17    1
    29    16    18    1
    30    16    40    1
    31    18    19   ar
    32    18    23   ar
    33    19    20   ar
    34    19    41    1
    35    20    21   ar
    36    20    42    1
    37    21    22   ar
    38    21    24    1
    39    22    23   ar
    40    22    43    1
    41    23    44    1
    42    24    45    1
    43    26    46    1
    44    27    47    1
    45    28    48    1
    46    29    49    1
    47    30    50    1
    48     1    31    1
    49     1    27    1
    50     2    32    1
    51     2    28    1
    52     4    34    1
    53     4    30    1
