@<TRIPOS>MOLECULE
*****
 50 53 0 0 0
SMALL
GASTEIGER

@<TRIPOS>ATOM
     1 C         -1.680414   -1.369911   -0.265244 C.3        1 UNL1     0.1889
     2 C         -0.461167   -0.578414   -0.810138 C.3        1 UNL1     0.1342
     3 C         -0.779875   0.364511   -1.980515 C.3        1 UNL1     0.1174
     4 C         -1.863425   -0.188159   -2.909813 C.3        1 UNL1     0.1456
     5 C         -3.076678   -0.739992   -2.139188 C.3        1 UNL1     0.2326
     6 O         -2.654077   -1.750387   -1.226293 O.3        1 UNL1     -0.3076
     7 O         -3.876241   0.283826   -1.519659 O.3        1 UNL1     -0.4605
     8 C         -3.784184   1.545946   -2.078324 C.ar        1 UNL1     0.1310
     9 C         -2.642016   2.353846   -2.071411 C.ar        1 UNL1     0.0226
     10 C         -2.643327   3.614203   -2.680838 C.ar        1 UNL1     0.1343
     11 C         -3.780836   4.087714   -3.333295 C.ar        1 UNL1     0.1007
     12 C         -4.939955   3.307491   -3.311409 C.ar        1 UNL1     0.1389
     13 C         -4.939173   2.041376   -2.696279 C.ar        1 UNL1     0.0229
     14 C         -3.812067   5.37502   -4.065431 C.2        1 UNL1     0.1740
     15 C         -5.039494   5.621981   -4.892463 C.3        1 UNL1     0.0520
     16 C         -6.252413   5.134374   -4.112064 C.3        1 UNL1     0.1322
     17 O         -6.145569   3.721914   -3.828142 O.3        1 UNL1     -0.4828
     18 C         -6.593119   6.001529   -2.897698 C.ar        1 UNL1     -0.0067
     19 C         -7.348104   7.178795   -3.0773 C.ar        1 UNL1     -0.0516
     20 C         -7.636788   8.019063   -1.99537 C.ar        1 UNL1     -0.0198
     21 C         -7.171006   7.697682   -0.732996 C.ar        1 UNL1     0.1169
     22 C         -6.453542   6.528015   -0.518605 C.ar        1 UNL1     -0.0198
     23 C         -6.180465   5.678128   -1.597112 C.ar        1 UNL1     -0.0516
     24 O         -7.439574   8.559381   0.289622 O.3        1 UNL1     -0.5068
     25 O         -2.875238   6.169189   -4.076933 O.2        1 UNL1     -0.2917
     26 O         -1.49712   4.353083   -2.637808 O.3        1 UNL1     -0.5058
     27 O         -2.276164   -0.774939   0.87663 O.3        1 UNL1     -0.3648
     28 O         0.523414   -1.520412   -1.274838 O.3        1 UNL1     -0.3841
     29 O         -1.075734   1.679606   -1.506043 O.3        1 UNL1     -0.3863
     30 O         -1.302431   -1.248934   -3.713387 O.3        1 UNL1     -0.3829
     31 H         -1.293715   -2.327434   0.100396 H        1 UNL1     0.0937
     32 H         0.0   0.0   0.0 H        1 UNL1     0.0671
     33 H         0.132525   0.470412   -2.583865 H        1 UNL1     0.0649
     34 H         -2.198625   0.593872   -3.60008 H        1 UNL1     0.0683
     35 H         -3.676154   -1.238282   -2.911337 H        1 UNL1     0.1085
     36 H         -1.709742   2.019499   -1.629599 H        1 UNL1     0.0691
     37 H         -5.854808   1.453934   -2.69203 H        1 UNL1     0.0691
     38 H         -4.924154   5.067725   -5.830026 H        1 UNL1     0.0385
     39 H         -5.102537   6.689069   -5.13148 H        1 UNL1     0.0385
     40 H         -7.120846   5.215277   -4.779746 H        1 UNL1     0.0789
     41 H         -7.717367   7.45792   -4.05984 H        1 UNL1     0.0623
     42 H         -8.209769   8.930198   -2.148788 H        1 UNL1     0.0654
     43 H         -6.096884   6.259074   0.4685 H        1 UNL1     0.0654
     44 H         -5.626433   4.767314   -1.391415 H        1 UNL1     0.0623
     45 H         -8.003212   9.27299   -0.050657 H        1 UNL1     0.2921
     46 H         -1.177701   4.507564   -3.540869 H        1 UNL1     0.2922
     47 H         -1.733405   -0.937849   1.660679 H        1 UNL1     0.2126
     48 H         0.554153   -1.436019   -2.247291 H        1 UNL1     0.2101
     49 H         -1.662487   2.132272   -2.132627 H        1 UNL1     0.2100
     50 H         -1.922963   -2.006578   -3.688322 H        1 UNL1     0.2102
@<TRIPOS>BOND
     1     1     2    1
     2     1     6    1
     3     2     3    1
     4     3     4    1
     5     3    29    1
     6     3    33    1
     7     4     5    1
     8     5     6    1
     9     5     7    1
    10     5    35    1
    11     7     8    1
    12     8     9   ar
    13     8    13   ar
    14     9    10   ar
    15     9    36    1
    16    10    11   ar
    17    10    26    1
    18    11    12   ar
    19    11    14    1
    20    12    13   ar
    21    12    17    1
    22    13    37    1
    23    14    15    1
    24    14    25    2
    25    15    16    1
    26    15    38    1
    27    15    39    1
    28    16    17    1
    29    16    18    1
    30    16    40    1
    31    18    19   ar
    32    18    23   ar
    33    19    20   ar
    34    19    41    1
    35    20    21   ar
    36    20    42    1
    37    21    22   ar
    38    21    24    1
    39    22    23   ar
    40    22    43    1
    41    23    44    1
    42    24    45    1
    43    26    46    1
    44    27    47    1
    45    28    48    1
    46    29    49    1
    47    30    50    1
    48     1    31    1
    49     1    27    1
    50     2    32    1
    51     2    28    1
    52     4    34    1
    53     4    30    1
