@<TRIPOS>MOLECULE
*****
 50 53 0 0 0
SMALL
GASTEIGER

@<TRIPOS>ATOM
     1 C         -0.386039   -1.395921   1.634987 C.3        1 UNL1     0.1889
     2 C         -0.423835   -1.003033   0.133604 C.3        1 UNL1     0.1342
     3 C         -1.820283   -1.046177   -0.505566 C.3        1 UNL1     0.1174
     4 C         -2.695946   -2.168738   0.056741 C.3        1 UNL1     0.1456
     5 C         -2.65615   -2.234353   1.594426 C.3        1 UNL1     0.2326
     6 O         -1.311091   -2.39446   2.039455 O.3        1 UNL1     -0.3076
     7 O         -3.336724   -1.138583   2.232727 O.3        1 UNL1     -0.4605
     8 C         -3.926018   -1.418875   3.452438 C.ar        1 UNL1     0.1310
     9 C         -4.7101   -2.542719   3.734382 C.ar        1 UNL1     0.0226
     10 C         -5.250436   -2.74676   5.00965 C.ar        1 UNL1     0.1343
     11 C         -4.99979   -1.843121   6.041373 C.ar        1 UNL1     0.1007
     12 C         -4.252352   -0.69611   5.761217 C.ar        1 UNL1     0.1389
     13 C         -3.711361   -0.489835   4.47817 C.ar        1 UNL1     0.0229
     14 C         -5.475669   -2.052297   7.428434 C.2        1 UNL1     0.1740
     15 C         -4.929   -1.101736   8.452708 C.3        1 UNL1     0.0520
     16 C         -4.8839   0.291807   7.841185 C.3        1 UNL1     0.1322
     17 O         -4.03537   0.311567   6.672136 O.3        1 UNL1     -0.4828
     18 C         -6.264771   0.918505   7.633419 C.ar        1 UNL1     -0.0067
     19 C         -6.581242   1.499827   6.388379 C.ar        1 UNL1     -0.0516
     20 C         -7.817347   2.123243   6.180146 C.ar        1 UNL1     -0.0198
     21 C         -8.740569   2.1783   7.20896 C.ar        1 UNL1     0.1169
     22 C         -8.471135   1.585602   8.435725 C.ar        1 UNL1     -0.0198
     23 C         -7.242369   0.945975   8.638378 C.ar        1 UNL1     -0.0516
     24 O         -9.918659   2.826818   6.981079 O.3        1 UNL1     -0.5068
     25 O         -6.205378   -2.983014   7.759756 O.2        1 UNL1     -0.2917
     26 O         -6.007333   -3.862508   5.21893 O.3        1 UNL1     -0.5058
     27 O         -0.402515   -0.280699   2.511797 O.3        1 UNL1     -0.3648
     28 O         0.410994   -1.919213   -0.598775 O.3        1 UNL1     -0.3841
     29 O         -2.449858   0.234774   -0.435342 O.3        1 UNL1     -0.3863
     30 O         -2.243305   -3.433465   -0.473608 O.3        1 UNL1     -0.3829
     31 H         0.588831   -1.863388   1.811571 H        1 UNL1     0.0937
     32 H         0.0   0.0   0.0 H        1 UNL1     0.0671
     33 H         -1.692138   -1.249906   -1.57785 H        1 UNL1     0.0649
     34 H         -3.73228   -2.0354   -0.272854 H        1 UNL1     0.0683
     35 H         -3.184146   -3.166069   1.833182 H        1 UNL1     0.1085
     36 H         -4.895033   -3.310103   2.990714 H        1 UNL1     0.0691
     37 H         -3.133924   0.41178   4.285427 H        1 UNL1     0.0691
     38 H         -3.92539   -1.447183   8.72282 H        1 UNL1     0.0385
     39 H         -5.556875   -1.140281   9.349406 H        1 UNL1     0.0385
     40 H         -4.3737   0.945182   8.561821 H        1 UNL1     0.0789
     41 H         -5.870066   1.477871   5.567771 H        1 UNL1     0.0623
     42 H         -8.04489   2.578283   5.219327 H        1 UNL1     0.0654
     43 H         -9.1929   1.609738   9.243426 H        1 UNL1     0.0654
     44 H         -7.069648   0.484383   9.60582 H        1 UNL1     0.0623
     45 H         -9.722089   3.752286   6.762934 H        1 UNL1     0.2921
     46 H         -5.630836   -4.376238   5.950875 H        1 UNL1     0.2922
     47 H         0.328836   0.318063   2.305715 H        1 UNL1     0.2126
     48 H         1.316008   -1.815465   -0.246753 H        1 UNL1     0.2101
     49 H         -1.996256   0.858189   -1.024743 H        1 UNL1     0.2100
     50 H         -2.404941   -3.430431   -1.439826 H        1 UNL1     0.2102
@<TRIPOS>BOND
     1     1     2    1
     2     1     6    1
     3     2     3    1
     4     3     4    1
     5     3    29    1
     6     3    33    1
     7     4     5    1
     8     5     6    1
     9     5     7    1
    10     5    35    1
    11     7     8    1
    12     8     9   ar
    13     8    13   ar
    14     9    10   ar
    15     9    36    1
    16    10    11   ar
    17    10    26    1
    18    11    12   ar
    19    11    14    1
    20    12    13   ar
    21    12    17    1
    22    13    37    1
    23    14    15    1
    24    14    25    2
    25    15    16    1
    26    15    38    1
    27    15    39    1
    28    16    17    1
    29    16    18    1
    30    16    40    1
    31    18    19   ar
    32    18    23   ar
    33    19    20   ar
    34    19    41    1
    35    20    21   ar
    36    20    42    1
    37    21    22   ar
    38    21    24    1
    39    22    23   ar
    40    22    43    1
    41    23    44    1
    42    24    45    1
    43    26    46    1
    44    27    47    1
    45    28    48    1
    46    29    49    1
    47    30    50    1
    48     1    31    1
    49     1    27    1
    50     2    32    1
    51     2    28    1
    52     4    34    1
    53     4    30    1
