@<TRIPOS>MOLECULE
*****
 50 53 0 0 0
SMALL
GASTEIGER

@<TRIPOS>ATOM
     1 C         -0.335983   -1.331372   1.698638 C.3        1 UNL1     0.1889
     2 C         -0.464855   -0.974741   0.193265 C.3        1 UNL1     0.1342
     3 C         -1.905386   -0.957596   -0.34063 C.3        1 UNL1     0.1174
     4 C         -2.794521   -2.016246   0.316497 C.3        1 UNL1     0.1456
     5 C         -2.643742   -2.045395   1.848417 C.3        1 UNL1     0.2326
     6 O         -1.279542   -2.267483   2.198423 O.3        1 UNL1     -0.3076
     7 O         -3.216289   -0.898465   2.502682 O.3        1 UNL1     -0.4605
     8 C         -3.727389   -1.115634   3.769623 C.ar        1 UNL1     0.1310
     9 C         -4.546587   -2.187502   4.140185 C.ar        1 UNL1     0.0226
     10 C         -5.000786   -2.329856   5.45675 C.ar        1 UNL1     0.1343
     11 C         -4.626917   -1.415898   6.440998 C.ar        1 UNL1     0.1007
     12 C         -3.842856   -0.318855   6.074217 C.ar        1 UNL1     0.1389
     13 C         -3.388465   -0.1745   4.749785 C.ar        1 UNL1     0.0229
     14 C         -5.008899   -1.564125   7.86447 C.2        1 UNL1     0.1740
     15 C         -4.338316   -0.619723   8.818395 C.3        1 UNL1     0.0520
     16 C         -4.265261   0.753611   8.165267 C.3        1 UNL1     0.1322
     17 O         -3.505989   0.697788   6.937481 O.3        1 UNL1     -0.4828
     18 C         -5.622747   1.449602   8.040559 C.ar        1 UNL1     -0.0067
     19 C         -5.998458   2.018663   6.806369 C.ar        1 UNL1     -0.0516
     20 C         -7.211973   2.703489   6.670883 C.ar        1 UNL1     -0.0198
     21 C         -8.053254   2.832209   7.761527 C.ar        1 UNL1     0.1169
     22 C         -7.726324   2.253934   8.98118 C.ar        1 UNL1     -0.0198
     23 C         -6.521379   1.553195   9.112064 C.ar        1 UNL1     -0.0516
     24 O         -9.209107   3.538488   7.601611 O.3        1 UNL1     -0.5068
     25 O         -5.760094   -2.444963   8.274731 O.2        1 UNL1     -0.2917
     26 O         -5.797878   -3.396939   5.752659 O.3        1 UNL1     -0.5058
     27 O         -0.228401   -0.195298   2.541579 O.3        1 UNL1     -0.3648
     28 O         0.263736   -1.953182   -0.57127 O.3        1 UNL1     -0.3841
     29 O         -2.459745   0.357167   -0.261783 O.3        1 UNL1     -0.3863
     30 O         -2.449797   -3.316684   -0.208592 O.3        1 UNL1     -0.3829
     31 H         0.623402   -1.846783   1.816999 H        1 UNL1     0.0937
     32 H         0.0   0.0   0.0 H        1 UNL1     0.0671
     33 H         -1.868402   -1.194813   -1.413047 H        1 UNL1     0.0649
     34 H         -3.844087   -1.834839   0.059783 H        1 UNL1     0.0683
     35 H         -3.200738   -2.940628   2.15205 H        1 UNL1     0.1085
     36 H         -4.826444   -2.961879   3.434395 H        1 UNL1     0.0691
     37 H         -2.780158   0.689073   4.4896 H        1 UNL1     0.0691
     38 H         -3.337056   -1.012767   9.0246 H        1 UNL1     0.0385
     39 H         -4.899057   -0.601508   9.759148 H        1 UNL1     0.0385
     40 H         -3.669215   1.395806   8.827713 H        1 UNL1     0.0789
     41 H         -5.351382   1.939284   5.937667 H        1 UNL1     0.0623
     42 H         -7.484963   3.148148   5.717066 H        1 UNL1     0.0654
     43 H         -8.384776   2.335769   9.837716 H        1 UNL1     0.0654
     44 H         -6.302848   1.105131   10.076599 H        1 UNL1     0.0623
     45 H         -8.980461   4.448142   7.350677 H        1 UNL1     0.2921
     46 H         -5.396414   -3.911359   6.470719 H        1 UNL1     0.2922
     47 H         0.514339   0.358721   2.263621 H        1 UNL1     0.2126
     48 H         1.199443   -1.878501   -0.301811 H        1 UNL1     0.2101
     49 H         -2.019298   0.93989   -0.900715 H        1 UNL1     0.2100
     50 H         -2.682609   -3.329037   -1.160095 H        1 UNL1     0.2102
@<TRIPOS>BOND
     1     1     2    1
     2     1     6    1
     3     2     3    1
     4     3     4    1
     5     3    29    1
     6     3    33    1
     7     4     5    1
     8     5     6    1
     9     5     7    1
    10     5    35    1
    11     7     8    1
    12     8     9   ar
    13     8    13   ar
    14     9    10   ar
    15     9    36    1
    16    10    11   ar
    17    10    26    1
    18    11    12   ar
    19    11    14    1
    20    12    13   ar
    21    12    17    1
    22    13    37    1
    23    14    15    1
    24    14    25    2
    25    15    16    1
    26    15    38    1
    27    15    39    1
    28    16    17    1
    29    16    18    1
    30    16    40    1
    31    18    19   ar
    32    18    23   ar
    33    19    20   ar
    34    19    41    1
    35    20    21   ar
    36    20    42    1
    37    21    22   ar
    38    21    24    1
    39    22    23   ar
    40    22    43    1
    41    23    44    1
    42    24    45    1
    43    26    46    1
    44    27    47    1
    45    28    48    1
    46    29    49    1
    47    30    50    1
    48     1    31    1
    49     1    27    1
    50     2    32    1
    51     2    28    1
    52     4    34    1
    53     4    30    1
