@<TRIPOS>MOLECULE
1HNN_SKF_A_3001
   26    27     0 0 0
SMALL
USER_CHARGES


@<TRIPOS>ATOM
     1 C1         -3.870486   -0.005446   0.004907 C.2        1 SUBUNIT     0.0000
     2 C2         -3.180732   -1.210531   0.002477 C.2        1 SUBUNIT     0.0000
     3 C3         -1.781325   -1.204847   -0.0 C.2        1 SUBUNIT     0.0000
     4 C4         -1.09   0.0   0.0 C.2        1 SUBUNIT     0.0000
     5 S5         -0.890734   -2.727523   -0.010998 S.o2        1 SUBUNIT     0.0000
     6 C6         -1.777817   1.198733   0.0 C.2        1 SUBUNIT     0.0000
     7 C7         -3.177105   1.199108   0.003607 C.2        1 SUBUNIT     0.0000
     8 O8         -1.687711   -3.789227   -0.5866 O.2        1 SUBUNIT     0.0000
     9 O9         -0.46014   -3.126909   1.304004 O.2        1 SUBUNIT     0.0000
     10 N10         0.386132   -2.502243   -0.907705 N.pl3        1 SUBUNIT     0.0000
     11 C11         -1.012584   2.495475   0.080013 C.3        1 SUBUNIT     0.0000
     12 C12         -3.20627   3.63069   0.366494 C.3        1 SUBUNIT     0.0000
     13 C13         -3.905414   2.470232   -0.307576 C.3        1 SUBUNIT     0.0000
     14 N14         -1.839344   3.688244   -0.218402 N.3        1 SUBUNIT     0.0000
     15 H1         -4.96048   -0.004109   0.007847 H        1 SUBUNIT     0.0000
     16 H2         -3.725582   -2.154585   0.002498 H        1 SUBUNIT     0.0000
     17 H3         0.0   0.0   0.0 H        1 SUBUNIT     0.0000
     18 H4         0.98167   -1.717288   -0.490401 H        1 SUBUNIT     0.0000
     19 H5         0.083979   -2.232167   -1.898021 H        1 SUBUNIT     0.0000
     20 H6         -0.611037   2.597474   1.088207 H        1 SUBUNIT     0.0000
     21 H7         -0.19191   2.456544   -0.636282 H        1 SUBUNIT     0.0000
     22 H8         -3.740913   4.559868   0.169305 H        1 SUBUNIT     0.0000
     23 H9         -3.150096   3.464489   1.442282 H        1 SUBUNIT     0.0000
     24 H10         -3.914736   2.628734   -1.385949 H        1 SUBUNIT     0.0000
     25 H11         -4.929631   2.400939   0.058865 H        1 SUBUNIT     0.0000
     26 H12         -1.930225   3.778835   -1.28068 H        1 SUBUNIT     0.0000
@<TRIPOS>BOND
     1    1    2 2
     2    2    3 1
     3    3    4 2
     4    3    5 1
     5    4    6 1
     6    1    7 1
     7    6    7 2
     8    5    8 2
     9    5    9 2
    10    5   10 1
    11    6   11 1
    12    7   13 1
    13   12   13 1
    14   11   14 1
    15   12   14 1
    16    1   15 1
    17    2   16 1
    18    4   17 1
    19   10   18 1
    20   10   19 1
    21   11   20 1
    22   11   21 1
    23   12   22 1
    24   12   23 1
    25   13   24 1
    26   13   25 1
    27   14   26 1
@<SCITEGIC>ATOM_PROPERTY
Formal Charge
SciTegic.value.StringValue
1 0
2 0
3 0
4 0
5 0
6 0
7 0
8 0
9 0
10 0
11 0
12 0
13 0
14 0
15 0
16 0
17 0
18 0
19 0
20 0
21 0
22 0
23 0
24 0
25 0
26 0

@<SCITEGIC>ATOM_PROPERTY
pdb_tempFactor
SciTegic.value.DoubleValue
1 0.00
2 0.00
3 0.00
4 0.00
5 0.00
6 0.00
7 0.00
8 0.00
9 0.00
10 0.00
11 0.00
12 0.00
13 0.00
14 0.00
15 0.00
16 0.00
17 0.00
18 0.00
19 0.00
20 0.00
21 0.00
22 0.00
23 0.00
24 0.00
25 0.00
26 0.00

@<SCITEGIC>ATOM_PROPERTY
pdb_occupancy
SciTegic.value.DoubleValue
1 1.00
2 1.00
3 1.00
4 1.00
5 1.00
6 1.00
7 1.00
8 1.00
9 1.00
10 1.00
11 1.00
12 1.00
13 1.00
14 1.00
15 1.00
16 1.00
17 1.00
18 1.00
19 1.00
20 1.00
21 1.00
22 1.00
23 1.00
24 1.00
25 1.00
26 1.00

