@<TRIPOS>MOLECULE
*****
 50 53 0 0 0
SMALL
GASTEIGER

@<TRIPOS>ATOM
     1 C         -0.355808   -1.339724   1.688 C.3        1 UNL1     0.1889
     2 C         -0.474842   -0.971604   0.184584 C.3        1 UNL1     0.1342
     3 C         -1.912838   -0.937199   -0.355275 C.3        1 UNL1     0.1174
     4 C         -2.814722   -1.991871   0.290781 C.3        1 UNL1     0.1456
     5 C         -2.670813   -2.032919   1.82309 C.3        1 UNL1     0.2326
     6 O         -1.310283   -2.270275   2.177334 O.3        1 UNL1     -0.3076
     7 O         -3.23534   -0.885132   2.482798 O.3        1 UNL1     -0.4605
     8 C         -3.753906   -1.106122   3.74604 C.ar        1 UNL1     0.1310
     9 C         -4.584749   -2.172711   4.105747 C.ar        1 UNL1     0.0226
     10 C         -5.045925   -2.319768   5.419365 C.ar        1 UNL1     0.1343
     11 C         -4.667701   -1.416136   6.411452 C.ar        1 UNL1     0.1007
     12 C         -3.871771   -0.324067   6.055551 C.ar        1 UNL1     0.1389
     13 C         -3.410351   -0.174958   4.734079 C.ar        1 UNL1     0.0229
     14 C         -5.057179   -1.570479   7.83224 C.2        1 UNL1     0.1740
     15 C         -4.381838   -0.639001   8.79547 C.3        1 UNL1     0.0520
     16 C         -4.293044   0.738016   8.152121 C.3        1 UNL1     0.1322
     17 O         -3.529059   0.68342   6.927207 O.3        1 UNL1     -0.4828
     18 C         -5.643366   1.447638   8.026456 C.ar        1 UNL1     -0.0067
     19 C         -6.00839   2.02865   6.794629 C.ar        1 UNL1     -0.0516
     20 C         -7.214807   2.725822   6.658719 C.ar        1 UNL1     -0.0198
     21 C         -8.05952   2.855023   7.746651 C.ar        1 UNL1     0.1169
     22 C         -7.743298   2.265357   8.96367 C.ar        1 UNL1     -0.0198
     23 C         -6.545581   1.552387   9.094833 C.ar        1 UNL1     -0.0516
     24 O         -9.207972   3.573268   7.586703 O.3        1 UNL1     -0.5068
     25 O         -5.818394   -2.446966   8.233247 O.2        1 UNL1     -0.2917
     26 O         -5.854297   -3.381272   5.704549 O.3        1 UNL1     -0.5058
     27 O         -0.241156   -0.210509   2.539185 O.3        1 UNL1     -0.3648
     28 O         0.247782   -1.951634   -0.58357 O.3        1 UNL1     -0.3841
     29 O         -2.455124   0.382173   -0.269735 O.3        1 UNL1     -0.3863
     30 O         -2.480008   -3.291886   -0.241776 O.3        1 UNL1     -0.3829
     31 H         0.598162   -1.864974   1.806876 H        1 UNL1     0.0937
     32 H         0.0   0.0   0.0 H        1 UNL1     0.0671
     33 H         -1.87348   -1.167415   -1.429134 H        1 UNL1     0.0649
     34 H         -3.86142   -1.798804   0.030879 H        1 UNL1     0.0683
     35 H         -3.237516   -2.924905   2.118196 H        1 UNL1     0.1085
     36 H         -4.868849   -2.939565   3.393467 H        1 UNL1     0.0691
     37 H         -2.792824   0.684589   4.482419 H        1 UNL1     0.0691
     38 H         -3.38522   -1.042888   9.003206 H        1 UNL1     0.0385
     39 H         -4.946423   -0.621923   9.733943 H        1 UNL1     0.0385
     40 H         -3.693829   1.370006   8.821487 H        1 UNL1     0.0789
     41 H         -5.358361   1.949104   5.92815 H        1 UNL1     0.0623
     42 H         -7.479493   3.179552   5.706836 H        1 UNL1     0.0654
     43 H         -8.404627   2.347549   9.817953 H        1 UNL1     0.0654
     44 H         -6.33543   1.095692   10.057179 H        1 UNL1     0.0623
     45 H         -8.969691   4.482415   7.343003 H        1 UNL1     0.2921
     46 H         -5.460787   -3.904361   6.420747 H        1 UNL1     0.2922
     47 H         0.507957   0.338356   2.268193 H        1 UNL1     0.2126
     48 H         1.182983   -1.887641   -0.309644 H        1 UNL1     0.2101
     49 H         -2.006464   0.965064   -0.902772 H        1 UNL1     0.2100
     50 H         -2.708832   -3.295532   -1.19432 H        1 UNL1     0.2102
@<TRIPOS>BOND
     1     1     2    1
     2     1     6    1
     3     2     3    1
     4     3     4    1
     5     3    29    1
     6     3    33    1
     7     4     5    1
     8     5     6    1
     9     5     7    1
    10     5    35    1
    11     7     8    1
    12     8     9   ar
    13     8    13   ar
    14     9    10   ar
    15     9    36    1
    16    10    11   ar
    17    10    26    1
    18    11    12   ar
    19    11    14    1
    20    12    13   ar
    21    12    17    1
    22    13    37    1
    23    14    15    1
    24    14    25    2
    25    15    16    1
    26    15    38    1
    27    15    39    1
    28    16    17    1
    29    16    18    1
    30    16    40    1
    31    18    19   ar
    32    18    23   ar
    33    19    20   ar
    34    19    41    1
    35    20    21   ar
    36    20    42    1
    37    21    22   ar
    38    21    24    1
    39    22    23   ar
    40    22    43    1
    41    23    44    1
    42    24    45    1
    43    26    46    1
    44    27    47    1
    45    28    48    1
    46    29    49    1
    47    30    50    1
    48     1    31    1
    49     1    27    1
    50     2    32    1
    51     2    28    1
    52     4    34    1
    53     4    30    1
