@<TRIPOS>MOLECULE
*****
 50 53 0 0 0
SMALL
GASTEIGER

@<TRIPOS>ATOM
     1 C         0.352037   -1.677911   1.353326 C.3        1 UNL1     0.1889
     2 C         -0.537723   -0.536579   0.791517 C.3        1 UNL1     0.1342
     3 C         -1.022904   0.474366   1.841781 C.3        1 UNL1     0.1174
     4 C         -1.301366   -0.170335   3.201905 C.3        1 UNL1     0.1456
     5 C         -0.172312   -1.116932   3.64862 C.3        1 UNL1     0.2326
     6 O         0.034508   -2.12603   2.662814 O.3        1 UNL1     -0.3076
     7 O         1.037646   -0.431271   4.019013 O.3        1 UNL1     -0.4605
     8 C         1.058404   0.119058   5.287963 C.ar        1 UNL1     0.1310
     9 C         -0.018851   0.138795   6.180394 C.ar        1 UNL1     0.0226
     10 C         0.106676   0.706438   7.453942 C.ar        1 UNL1     0.1343
     11 C         1.320673   1.247377   7.875175 C.ar        1 UNL1     0.1007
     12 C         2.391771   1.270322   6.977953 C.ar        1 UNL1     0.1389
     13 C         2.26453   0.701871   5.696508 C.ar        1 UNL1     0.0229
     14 C         1.532972   1.784265   9.239299 C.2        1 UNL1     0.1740
     15 C         2.952717   2.118201   9.591945 C.3        1 UNL1     0.0520
     16 C         3.609254   2.769171   8.382335 C.3        1 UNL1     0.1322
     17 O         3.597999   1.87357   7.248826 O.3        1 UNL1     -0.4828
     18 C         3.090285   4.177667   8.083113 C.ar        1 UNL1     -0.0067
     19 C         3.023595   5.12675   9.12379 C.ar        1 UNL1     -0.0516
     20 C         2.50983   6.408791   8.894927 C.ar        1 UNL1     -0.0198
     21 C         2.053771   6.750826   7.634431 C.ar        1 UNL1     0.1169
     22 C         2.1373   5.849085   6.58147 C.ar        1 UNL1     -0.0198
     23 C         2.668078   4.573137   6.805718 C.ar        1 UNL1     -0.0516
     24 O         1.525097   7.995772   7.458328 O.3        1 UNL1     -0.5068
     25 O         0.637212   1.883881   10.073671 O.2        1 UNL1     -0.2917
     26 O         -0.98221   0.694608   8.275997 O.3        1 UNL1     -0.5058
     27 O         1.742135   -1.43609   1.205214 O.3        1 UNL1     -0.3648
     28 O         -1.706577   -1.123548   0.189892 O.3        1 UNL1     -0.3841
     29 O         -0.127386   1.584616   1.928526 O.3        1 UNL1     -0.3863
     30 O         -2.53339   -0.920171   3.127399 O.3        1 UNL1     -0.3829
     31 H         0.163373   -2.557916   0.728766 H        1 UNL1     0.0937
     32 H         0.0   0.0   0.0 H        1 UNL1     0.0671
     33 H         -1.974938   0.894348   1.488277 H        1 UNL1     0.0649
     34 H         -1.444131   0.606115   3.961606 H        1 UNL1     0.0683
     35 H         -0.581503   -1.616644   4.535598 H        1 UNL1     0.1085
     36 H         -0.972223   -0.315362   5.933526 H        1 UNL1     0.0691
     37 H         3.112983   0.733478   5.016344 H        1 UNL1     0.0691
     38 H         3.456329   1.183048   9.859134 H        1 UNL1     0.0385
     39 H         2.959938   2.773461   10.469647 H        1 UNL1     0.0385
     40 H         4.673817   2.896374   8.621173 H        1 UNL1     0.0789
     41 H         3.366717   4.879763   10.124247 H        1 UNL1     0.0623
     42 H         2.452656   7.127817   9.708403 H        1 UNL1     0.0654
     43 H         1.796943   6.111598   5.586908 H        1 UNL1     0.0654
     44 H         2.728026   3.897668   5.957784 H        1 UNL1     0.0623
     45 H         1.597301   8.480971   8.296233 H        1 UNL1     0.2921
     46 H         -1.730445   0.282445   7.815913 H        1 UNL1     0.2922
     47 H         2.012105   -1.585291   0.288309 H        1 UNL1     0.2126
     48 H         -2.464476   -0.880252   0.755691 H        1 UNL1     0.2101
     49 H         -0.395771   2.169078   2.655277 H        1 UNL1     0.2100
     50 H         -2.808304   -1.140016   4.041622 H        1 UNL1     0.2102
@<TRIPOS>BOND
     1     1     2    1
     2     1     6    1
     3     2     3    1
     4     3     4    1
     5     3    29    1
     6     3    33    1
     7     4     5    1
     8     5     6    1
     9     5     7    1
    10     5    35    1
    11     7     8    1
    12     8     9   ar
    13     8    13   ar
    14     9    10   ar
    15     9    36    1
    16    10    11   ar
    17    10    26    1
    18    11    12   ar
    19    11    14    1
    20    12    13   ar
    21    12    17    1
    22    13    37    1
    23    14    15    1
    24    14    25    2
    25    15    16    1
    26    15    38    1
    27    15    39    1
    28    16    17    1
    29    16    18    1
    30    16    40    1
    31    18    19   ar
    32    18    23   ar
    33    19    20   ar
    34    19    41    1
    35    20    21   ar
    36    20    42    1
    37    21    22   ar
    38    21    24    1
    39    22    23   ar
    40    22    43    1
    41    23    44    1
    42    24    45    1
    43    26    46    1
    44    27    47    1
    45    28    48    1
    46    29    49    1
    47    30    50    1
    48     1    31    1
    49     1    27    1
    50     2    32    1
    51     2    28    1
    52     4    34    1
    53     4    30    1
