@<TRIPOS>MOLECULE
*****
 50 53 0 0 0
SMALL
GASTEIGER

@<TRIPOS>ATOM
     1 C         0.301607   0.440221   2.118028 C.3        1 UNL1     0.1889
     2 C         0.380434   -0.510567   0.893394 C.3        1 UNL1     0.1342
     3 C         -0.366713   -1.841892   1.066052 C.3        1 UNL1     0.1174
     4 C         -0.314448   -2.369925   2.501868 C.3        1 UNL1     0.1456
     5 C         -0.629072   -1.280445   3.543217 C.3        1 UNL1     0.2326
     6 O         0.274023   -0.187634   3.391383 O.3        1 UNL1     -0.3076
     7 O         -2.010334   -0.876237   3.550484 O.3        1 UNL1     -0.4605
     8 C         -2.891978   -1.718803   2.897557 C.ar        1 UNL1     0.1310
     9 C         -4.28509   -1.688293   3.022491 C.ar        1 UNL1     0.0226
     10 C         -5.095762   -2.575111   2.303974 C.ar        1 UNL1     0.1343
     11 C         -4.533658   -3.499084   1.424113 C.ar        1 UNL1     0.1007
     12 C         -3.141618   -3.566565   1.321867 C.ar        1 UNL1     0.1389
     13 C         -2.326588   -2.676533   2.046436 C.ar        1 UNL1     0.0229
     14 C         -5.346669   -4.402704   0.577568 C.2        1 UNL1     0.1740
     15 C         -4.589932   -5.169136   -0.467173 C.3        1 UNL1     0.0520
     16 C         -3.272615   -5.635459   0.137124 C.3        1 UNL1     0.1322
     17 O         -2.479074   -4.508177   0.569093 O.3        1 UNL1     -0.4828
     18 C         -3.432233   -6.738186   1.186524 C.ar        1 UNL1     -0.0067
     19 C         -2.288783   -7.246458   1.836444 C.ar        1 UNL1     -0.0516
     20 C         -2.394379   -8.28755   2.766465 C.ar        1 UNL1     -0.0198
     21 C         -3.634057   -8.832634   3.04915 C.ar        1 UNL1     0.1169
     22 C         -4.782327   -8.330929   2.450312 C.ar        1 UNL1     -0.0198
     23 C         -4.679163   -7.27745   1.534019 C.ar        1 UNL1     -0.0516
     24 O         -3.693363   -9.870683   3.93195 O.3        1 UNL1     -0.5068
     25 O         -6.570356   -4.478469   0.650607 O.2        1 UNL1     -0.2917
     26 O         -6.447402   -2.494203   2.471624 O.3        1 UNL1     -0.5058
     27 O         -0.70712   1.430911   2.000602 O.3        1 UNL1     -0.3648
     28 O         1.763887   -0.824441   0.647941 O.3        1 UNL1     -0.3841
     29 O         -1.699728   -1.744525   0.560361 O.3        1 UNL1     -0.3863
     30 O         1.004228   -2.896646   2.765208 O.3        1 UNL1     -0.3829
     31 H         1.237722   1.009024   2.133223 H        1 UNL1     0.0937
     32 H         0.0   0.0   0.0 H        1 UNL1     0.0671
     33 H         0.131223   -2.590316   0.433879 H        1 UNL1     0.0649
     34 H         -1.020557   -3.199103   2.621338 H        1 UNL1     0.0683
     35 H         -0.394765   -1.756797   4.503461 H        1 UNL1     0.1085
     36 H         -4.785672   -0.956783   3.647337 H        1 UNL1     0.0691
     37 H         -1.245491   -2.750314   1.950115 H        1 UNL1     0.0691
     38 H         -4.419577   -4.495408   -1.313693 H        1 UNL1     0.0385
     39 H         -5.205369   -6.006009   -0.814534 H        1 UNL1     0.0385
     40 H         -2.686889   -6.088802   -0.674002 H        1 UNL1     0.0789
     41 H         -1.303268   -6.841801   1.625107 H        1 UNL1     0.0623
     42 H         -1.503856   -8.678864   3.252111 H        1 UNL1     0.0654
     43 H         -5.759832   -8.740325   2.675679 H        1 UNL1     0.0654
     44 H         -5.598036   -6.903169   1.093075 H        1 UNL1     0.0623
     45 H         -4.059117   -9.541084   4.768793 H        1 UNL1     0.2921
     46 H         -6.742804   -3.20284   3.064907 H        1 UNL1     0.2922
     47 H         -1.373874   1.155112   1.356215 H        1 UNL1     0.2126
     48 H         2.072104   -1.34718   1.413106 H        1 UNL1     0.2101
     49 H         -1.825709   -2.379732   -0.162435 H        1 UNL1     0.2100
     50 H         1.118155   -3.707214   2.226959 H        1 UNL1     0.2102
@<TRIPOS>BOND
     1     1     2    1
     2     1     6    1
     3     2     3    1
     4     3     4    1
     5     3    29    1
     6     3    33    1
     7     4     5    1
     8     5     6    1
     9     5     7    1
    10     5    35    1
    11     7     8    1
    12     8     9   ar
    13     8    13   ar
    14     9    10   ar
    15     9    36    1
    16    10    11   ar
    17    10    26    1
    18    11    12   ar
    19    11    14    1
    20    12    13   ar
    21    12    17    1
    22    13    37    1
    23    14    15    1
    24    14    25    2
    25    15    16    1
    26    15    38    1
    27    15    39    1
    28    16    17    1
    29    16    18    1
    30    16    40    1
    31    18    19   ar
    32    18    23   ar
    33    19    20   ar
    34    19    41    1
    35    20    21   ar
    36    20    42    1
    37    21    22   ar
    38    21    24    1
    39    22    23   ar
    40    22    43    1
    41    23    44    1
    42    24    45    1
    43    26    46    1
    44    27    47    1
    45    28    48    1
    46    29    49    1
    47    30    50    1
    48     1    31    1
    49     1    27    1
    50     2    32    1
    51     2    28    1
    52     4    34    1
    53     4    30    1
