@<TRIPOS>MOLECULE
*****
 50 53 0 0 0
SMALL
GASTEIGER

@<TRIPOS>ATOM
     1 C         -0.373372   -1.605105   1.43354 C.3        1 UNL1     0.1889
     2 C         -0.377459   -1.030056   -0.008418 C.3        1 UNL1     0.1342
     3 C         -1.746389   -1.056424   -0.705412 C.3        1 UNL1     0.1174
     4 C         -2.584058   -2.278948   -0.322186 C.3        1 UNL1     0.1456
     5 C         -2.595684   -2.534062   1.196084 C.3        1 UNL1     0.2326
     6 O         -1.26095   -2.68725   1.673459 O.3        1 UNL1     -0.3076
     7 O         -3.352625   -1.558529   1.935474 O.3        1 UNL1     -0.4605
     8 C         -3.979795   -2.018005   3.079619 C.ar        1 UNL1     0.1310
     9 C         -4.967462   -3.008032   3.120367 C.ar        1 UNL1     0.0226
     10 C         -5.531435   -3.418171   4.334295 C.ar        1 UNL1     0.1343
     11 C         -5.103963   -2.864517   5.540353 C.ar        1 UNL1     0.1007
     12 C         -4.147685   -1.846024   5.508935 C.ar        1 UNL1     0.1389
     13 C         -3.582668   -1.431945   4.287983 C.ar        1 UNL1     0.0229
     14 C         -5.60522   -3.319577   6.857857 C.2        1 UNL1     0.1740
     15 C         -4.878306   -2.775298   8.052388 C.3        1 UNL1     0.0520
     16 C         -4.564007   -1.307565   7.797568 C.3        1 UNL1     0.1322
     17 O         -3.733407   -1.157063   6.625167 O.3        1 UNL1     -0.4828
     18 C         -5.796366   -0.400159   7.822651 C.ar        1 UNL1     -0.0067
     19 C         -5.626714   0.999282   7.79107 C.ar        1 UNL1     -0.0516
     20 C         -6.729962   1.858348   7.860446 C.ar        1 UNL1     -0.0198
     21 C         -8.004594   1.331659   7.968788 C.ar        1 UNL1     0.1169
     22 C         -8.206242   -0.04245   7.968581 C.ar        1 UNL1     -0.0198
     23 C         -7.104545   -0.901859   7.880623 C.ar        1 UNL1     -0.0516
     24 O         -9.05177   2.199485   8.072238 O.3        1 UNL1     -0.5068
     25 O         -6.501524   -4.148733   6.990613 O.2        1 UNL1     -0.2917
     26 O         -6.491192   -4.387503   4.305206 O.3        1 UNL1     -0.5058
     27 O         -0.476922   -0.60992   2.43936 O.3        1 UNL1     -0.3648
     28 O         0.527779   -1.808849   -0.812613 O.3        1 UNL1     -0.3841
     29 O         -2.441533   0.175854   -0.504416 O.3        1 UNL1     -0.3863
     30 O         -2.049978   -3.445757   -0.984763 O.3        1 UNL1     -0.3829
     31 H         0.616832   -2.046231   1.591597 H        1 UNL1     0.0937
     32 H         0.0   0.0   0.0 H        1 UNL1     0.0671
     33 H         -1.570165   -1.118725   -1.788363 H        1 UNL1     0.0649
     34 H         -3.61341   -2.152687   -0.675589 H        1 UNL1     0.0683
     35 H         -3.084422   -3.51128   1.296376 H        1 UNL1     0.1085
     36 H         -5.302491   -3.516522   2.222974 H        1 UNL1     0.0691
     37 H         -2.840749   -0.636305   4.290429 H        1 UNL1     0.0691
     38 H         -3.960541   -3.359998   8.176324 H        1 UNL1     0.0385
     39 H         -5.497453   -2.917283   8.944731 H        1 UNL1     0.0385
     40 H         -3.932442   -0.962933   8.627552 H        1 UNL1     0.0789
     41 H         -4.635826   1.437579   7.715671 H        1 UNL1     0.0623
     42 H         -6.585246   2.935795   7.847164 H        1 UNL1     0.0654
     43 H         -9.201253   -0.465603   8.037889 H        1 UNL1     0.0654
     44 H         -7.299738   -1.969885   7.872564 H        1 UNL1     0.0623
     45 H         -8.745575   2.995717   8.535894 H        1 UNL1     0.2921
     46 H         -6.316977   -5.036376   5.005223 H        1 UNL1     0.2922
     47 H         0.354069   -0.542004   2.929973 H        1 UNL1     0.2126
     48 H         0.086627   -1.951034   -1.672207 H        1 UNL1     0.2101
     49 H         -3.077544   0.081218   0.222446 H        1 UNL1     0.2100
     50 H         -2.711196   -4.16462   -0.908999 H        1 UNL1     0.2102
@<TRIPOS>BOND
     1     1     2    1
     2     1     6    1
     3     2     3    1
     4     3     4    1
     5     3    29    1
     6     3    33    1
     7     4     5    1
     8     5     6    1
     9     5     7    1
    10     5    35    1
    11     7     8    1
    12     8     9   ar
    13     8    13   ar
    14     9    10   ar
    15     9    36    1
    16    10    11   ar
    17    10    26    1
    18    11    12   ar
    19    11    14    1
    20    12    13   ar
    21    12    17    1
    22    13    37    1
    23    14    15    1
    24    14    25    2
    25    15    16    1
    26    15    38    1
    27    15    39    1
    28    16    17    1
    29    16    18    1
    30    16    40    1
    31    18    19   ar
    32    18    23   ar
    33    19    20   ar
    34    19    41    1
    35    20    21   ar
    36    20    42    1
    37    21    22   ar
    38    21    24    1
    39    22    23   ar
    40    22    43    1
    41    23    44    1
    42    24    45    1
    43    26    46    1
    44    27    47    1
    45    28    48    1
    46    29    49    1
    47    30    50    1
    48     1    31    1
    49     1    27    1
    50     2    32    1
    51     2    28    1
    52     4    34    1
    53     4    30    1
