@<TRIPOS>MOLECULE
*****
 50 53 0 0 0
SMALL
GASTEIGER

@<TRIPOS>ATOM
     1 C         0.743629   0.542683   1.980736 C.3        1 UNL1     0.1889
     2 C         -0.233985   0.725683   0.788795 C.3        1 UNL1     0.1342
     3 C         -0.248908   2.137338   0.182601 C.3        1 UNL1     0.1174
     4 C         -0.038119   3.234735   1.228739 C.3        1 UNL1     0.1456
     5 C         1.128767   2.923544   2.183674 C.3        1 UNL1     0.2326
     6 O         0.909038   1.670521   2.827505 O.3        1 UNL1     -0.3076
     7 O         2.421831   3.019767   1.559136 O.3        1 UNL1     -0.4605
     8 C         3.459769   3.433123   2.374826 C.ar        1 UNL1     0.1310
     9 C         3.53637   4.669508   3.025045 C.ar        1 UNL1     0.0226
     10 C         4.624122   4.989137   3.846345 C.ar        1 UNL1     0.1343
     11 C         5.651123   4.069926   4.056493 C.ar        1 UNL1     0.1007
     12 C         5.606   2.847938   3.38011 C.ar        1 UNL1     0.1389
     13 C         4.513466   2.527828   2.552264 C.ar        1 UNL1     0.0229
     14 C         6.781662   4.322634   4.979626 C.2        1 UNL1     0.1740
     15 C         7.670487   3.145513   5.255171 C.3        1 UNL1     0.0520
     16 C         7.876444   2.382292   3.954005 C.3        1 UNL1     0.1322
     17 O         6.614673   1.913886   3.42903 O.3        1 UNL1     -0.4828
     18 C         8.75117   3.121   2.938185 C.ar        1 UNL1     -0.0067
     19 C         9.339424   4.351487   3.296058 C.ar        1 UNL1     -0.0516
     20 C         10.105955   5.075925   2.375416 C.ar        1 UNL1     -0.0198
     21 C         10.285161   4.585295   1.094403 C.ar        1 UNL1     0.1169
     22 C         9.746399   3.360422   0.722571 C.ar        1 UNL1     -0.0198
     23 C         8.99521   2.626922   1.648718 C.ar        1 UNL1     -0.0516
     24 O         11.00621   5.336715   0.213576 O.3        1 UNL1     -0.5068
     25 O         6.956379   5.392066   5.55779 O.2        1 UNL1     -0.2917
     26 O         4.638956   6.21224   4.450815 O.3        1 UNL1     -0.5058
     27 O         1.991595   -0.019314   1.607205 O.3        1 UNL1     -0.3648
     28 O         -1.569205   0.441797   1.246289 O.3        1 UNL1     -0.3841
     29 O         0.668374   2.23002   -0.909248 O.3        1 UNL1     -0.3863
     30 O         -1.245879   3.386699   2.005857 O.3        1 UNL1     -0.3829
     31 H         0.295898   -0.208992   2.63998 H        1 UNL1     0.0937
     32 H         0.0   0.0   -0.0 H        1 UNL1     0.0671
     33 H         -1.242654   2.30333   -0.256303 H        1 UNL1     0.0649
     34 H         0.146587   4.193938   0.732538 H        1 UNL1     0.0683
     35 H         1.051053   3.697645   2.957372 H        1 UNL1     0.1085
     36 H         2.743232   5.404994   2.946855 H        1 UNL1     0.0691
     37 H         4.502707   1.570317   2.03598 H        1 UNL1     0.0691
     38 H         7.171188   2.521668   6.004199 H        1 UNL1     0.0385
     39 H         8.615153   3.500886   5.680723 H        1 UNL1     0.0385
     40 H         8.428631   1.465317   4.200515 H        1 UNL1     0.0789
     41 H         9.206029   4.762479   4.292523 H        1 UNL1     0.0623
     42 H         10.544458   6.029283   2.659734 H        1 UNL1     0.0654
     43 H         9.893116   2.959707   -0.273327 H        1 UNL1     0.0654
     44 H         8.597965   1.668901   1.327411 H        1 UNL1     0.0623
     45 H         10.544542   6.18044   0.080507 H        1 UNL1     0.2921
     46 H         5.019067   6.129246   5.339657 H        1 UNL1     0.2922
     47 H         1.854681   -0.834215   1.104164 H        1 UNL1     0.2126
     48 H         -1.621617   -0.525052   1.373526 H        1 UNL1     0.2101
     49 H         1.138861   3.07807   -0.873923 H        1 UNL1     0.2100
     50 H         -1.940301   3.747324   1.416417 H        1 UNL1     0.2102
@<TRIPOS>BOND
     1     1     2    1
     2     1     6    1
     3     2     3    1
     4     3     4    1
     5     3    29    1
     6     3    33    1
     7     4     5    1
     8     5     6    1
     9     5     7    1
    10     5    35    1
    11     7     8    1
    12     8     9   ar
    13     8    13   ar
    14     9    10   ar
    15     9    36    1
    16    10    11   ar
    17    10    26    1
    18    11    12   ar
    19    11    14    1
    20    12    13   ar
    21    12    17    1
    22    13    37    1
    23    14    15    1
    24    14    25    2
    25    15    16    1
    26    15    38    1
    27    15    39    1
    28    16    17    1
    29    16    18    1
    30    16    40    1
    31    18    19   ar
    32    18    23   ar
    33    19    20   ar
    34    19    41    1
    35    20    21   ar
    36    20    42    1
    37    21    22   ar
    38    21    24    1
    39    22    23   ar
    40    22    43    1
    41    23    44    1
    42    24    45    1
    43    26    46    1
    44    27    47    1
    45    28    48    1
    46    29    49    1
    47    30    50    1
    48     1    31    1
    49     1    27    1
    50     2    32    1
    51     2    28    1
    52     4    34    1
    53     4    30    1
