@<TRIPOS>MOLECULE
*****
 50 53 0 0 0
SMALL
GASTEIGER

@<TRIPOS>ATOM
     1 C         0.920508   0.03996   1.980372 C.3        1 UNL1     0.1889
     2 C         -0.321164   0.021867   1.048779 C.3        1 UNL1     0.1342
     3 C         -1.291873   1.19541   1.251228 C.3        1 UNL1     0.1174
     4 C         -1.386032   1.642492   2.712176 C.3        1 UNL1     0.1456
     5 C         -0.004082   1.788823   3.374871 C.3        1 UNL1     0.2326
     6 O         0.710535   0.558285   3.28561 O.3        1 UNL1     -0.3076
     7 O         0.747684   2.916218   2.88995 O.3        1 UNL1     -0.4605
     8 C         1.601038   3.512789   3.800674 C.ar        1 UNL1     0.1310
     9 C         1.276882   3.838006   5.12221 C.ar        1 UNL1     0.0226
     10 C         2.21871   4.426496   5.974585 C.ar        1 UNL1     0.1343
     11 C         3.516052   4.68248   5.532752 C.ar        1 UNL1     0.1007
     12 C         3.839476   4.399857   4.202976 C.ar        1 UNL1     0.1389
     13 C         2.891511   3.81057   3.345344 C.ar        1 UNL1     0.0229
     14 C         4.574883   5.225218   6.41506 C.2        1 UNL1     0.1740
     15 C         5.96095   5.227545   5.840288 C.3        1 UNL1     0.0520
     16 C         5.874728   5.636315   4.376242 C.3        1 UNL1     0.1322
     17 O         5.052307   4.710037   3.632803 O.3        1 UNL1     -0.4828
     18 C         5.517524   7.110002   4.167976 C.ar        1 UNL1     -0.0067
     19 C         4.496287   7.45319   3.2583 C.ar        1 UNL1     -0.0516
     20 C         4.176912   8.793266   3.008982 C.ar        1 UNL1     -0.0198
     21 C         4.874827   9.797313   3.655999 C.ar        1 UNL1     0.1169
     22 C         5.863016   9.490278   4.582308 C.ar        1 UNL1     -0.0198
     23 C         6.170024   8.149947   4.845584 C.ar        1 UNL1     -0.0516
     24 O         4.561686   11.091324   3.359553 O.3        1 UNL1     -0.5068
     25 O         4.37326   5.581249   7.573108 O.2        1 UNL1     -0.2917
     26 O         1.83876   4.720125   7.251693 O.3        1 UNL1     -0.5058
     27 O         2.074279   0.600008   1.373787 O.3        1 UNL1     -0.3648
     28 O         -1.057765   -1.190557   1.294038 O.3        1 UNL1     -0.3841
     29 O         -0.980326   2.27024   0.362515 O.3        1 UNL1     -0.3863
     30 O         -2.156859   0.673413   3.455413 O.3        1 UNL1     -0.3829
     31 H         1.191508   -1.006029   2.160773 H        1 UNL1     0.0937
     32 H         0.0   0.0   -0.0 H        1 UNL1     0.0671
     33 H         -2.294848   0.855461   0.957637 H        1 UNL1     0.0649
     34 H         -1.921335   2.596202   2.777665 H        1 UNL1     0.0683
     35 H         -0.234905   1.947382   4.435748 H        1 UNL1     0.1085
     36 H         0.302687   3.61303   5.542269 H        1 UNL1     0.0691
     37 H         3.167888   3.601354   2.314161 H        1 UNL1     0.0691
     38 H         6.36437   4.214663   5.944447 H        1 UNL1     0.0385
     39 H         6.590351   5.908088   6.423808 H        1 UNL1     0.0385
     40 H         6.878874   5.51727   3.947245 H        1 UNL1     0.0789
     41 H         3.939977   6.68378   2.730874 H        1 UNL1     0.0623
     42 H         3.395448   9.045324   2.296387 H        1 UNL1     0.0654
     43 H         6.40549   10.268452   5.105833 H        1 UNL1     0.0654
     44 H         6.940433   7.946375   5.583062 H        1 UNL1     0.0623
     45 H         4.72711   11.238039   2.414129 H        1 UNL1     0.2921
     46 H         2.436462   4.279762   7.876389 H        1 UNL1     0.2922
     47 H         2.279379   0.134437   0.550964 H        1 UNL1     0.2126
     48 H         -0.466145   -1.930233   1.056138 H        1 UNL1     0.2101
     49 H         -1.188019   2.014454   -0.5503 H        1 UNL1     0.2100
     50 H         -3.074652   0.691743   3.113311 H        1 UNL1     0.2102
@<TRIPOS>BOND
     1     1     2    1
     2     1     6    1
     3     2     3    1
     4     3     4    1
     5     3    29    1
     6     3    33    1
     7     4     5    1
     8     5     6    1
     9     5     7    1
    10     5    35    1
    11     7     8    1
    12     8     9   ar
    13     8    13   ar
    14     9    10   ar
    15     9    36    1
    16    10    11   ar
    17    10    26    1
    18    11    12   ar
    19    11    14    1
    20    12    13   ar
    21    12    17    1
    22    13    37    1
    23    14    15    1
    24    14    25    2
    25    15    16    1
    26    15    38    1
    27    15    39    1
    28    16    17    1
    29    16    18    1
    30    16    40    1
    31    18    19   ar
    32    18    23   ar
    33    19    20   ar
    34    19    41    1
    35    20    21   ar
    36    20    42    1
    37    21    22   ar
    38    21    24    1
    39    22    23   ar
    40    22    43    1
    41    23    44    1
    42    24    45    1
    43    26    46    1
    44    27    47    1
    45    28    48    1
    46    29    49    1
    47    30    50    1
    48     1    31    1
    49     1    27    1
    50     2    32    1
    51     2    28    1
    52     4    34    1
    53     4    30    1
