@<TRIPOS>MOLECULE
*****
 50 53 0 0 0
SMALL
GASTEIGER

@<TRIPOS>ATOM
     1 C         -0.694749   -1.04051   1.790382 C.3        1 UNL1     0.1889
     2 C         -0.552917   -0.914066   0.249656 C.3        1 UNL1     0.1342
     3 C         -1.882912   -0.921044   -0.519454 C.3        1 UNL1     0.1174
     4 C         -2.93461   -1.829748   0.121879 C.3        1 UNL1     0.1456
     5 C         -3.037773   -1.629662   1.644931 C.3        1 UNL1     0.2326
     6 O         -1.766361   -1.850163   2.251364 O.3        1 UNL1     -0.3076
     7 O         -3.633003   -0.373862   2.019081 O.3        1 UNL1     -0.4605
     8 C         -4.35687   -0.373421   3.197869 C.ar        1 UNL1     0.1310
     9 C         -5.293875   -1.341935   3.573772 C.ar        1 UNL1     0.0226
     10 C         -5.964918   -1.262305   4.799848 C.ar        1 UNL1     0.1343
     11 C         -5.697476   -0.22401   5.691061 C.ar        1 UNL1     0.1007
     12 C         -4.794029   0.771355   5.309202 C.ar        1 UNL1     0.1389
     13 C         -4.121384   0.692486   4.0752 C.ar        1 UNL1     0.0229
     14 C         -6.315233   -0.136689   7.034529 C.2        1 UNL1     0.1740
     15 C         -5.748754   0.915074   7.942518 C.3        1 UNL1     0.0520
     16 C         -5.480509   2.167934   7.120117 C.3        1 UNL1     0.1322
     17 O         -4.536574   1.893971   6.061343 O.3        1 UNL1     -0.4828
     18 C         -6.75102   2.890625   6.665976 C.ar        1 UNL1     -0.0067
     19 C         -6.876116   3.291593   5.319949 C.ar        1 UNL1     -0.0516
     20 C         -8.003894   3.99617   4.882172 C.ar        1 UNL1     -0.0198
     21 C         -9.007822   4.311572   5.780213 C.ar        1 UNL1     0.1169
     22 C         -8.928824   3.901288   7.1047 C.ar        1 UNL1     -0.0198
     23 C         -7.809694   3.180647   7.538611 C.ar        1 UNL1     -0.0516
     24 O         -10.073408   5.031661   5.325902 O.3        1 UNL1     -0.5068
     25 O         -7.179262   -0.913239   7.433161 O.2        1 UNL1     -0.2917
     26 O         -6.86768   -2.238433   5.10608 O.3        1 UNL1     -0.5058
     27 O         -0.651886   0.206136   2.466269 O.3        1 UNL1     -0.3648
     28 O         0.224931   -2.026698   -0.229621 O.3        1 UNL1     -0.3841
     29 O         -2.355467   0.411488   -0.727255 O.3        1 UNL1     -0.3863
     30 O         -2.594761   -3.208135   -0.143152 O.3        1 UNL1     -0.3829
     31 H         0.196702   -1.569858   2.144196 H        1 UNL1     0.0937
     32 H         0.0   0.0   -0.0 H        1 UNL1     0.0671
     33 H         -1.687232   -1.321214   -1.52409 H        1 UNL1     0.0649
     34 H         -3.914147   -1.647767   -0.333961 H        1 UNL1     0.0683
     35 H         -3.694184   -2.444592   1.974921 H        1 UNL1     0.1085
     36 H         -5.50502   -2.203494   2.94987 H        1 UNL1     0.0691
     37 H         -3.423613   1.480755   3.800901 H        1 UNL1     0.0691
     38 H         -4.822389   0.518332   8.371436 H        1 UNL1     0.0385
     39 H         -6.45292   1.099896   8.760912 H        1 UNL1     0.0385
     40 H         -4.959675   2.879611   7.77492 H        1 UNL1     0.0789
     41 H         -6.097664   3.064152   4.5975 H        1 UNL1     0.0623
     42 H         -8.083181   4.310202   3.844333 H        1 UNL1     0.0654
     43 H         -9.716254   4.129859   7.812952 H        1 UNL1     0.0654
     44 H         -7.785999   2.86687   8.577759 H        1 UNL1     0.0623
     45 H         -9.74942   5.887795   5.0022 H        1 UNL1     0.2921
     46 H         -6.623158   -2.652381   5.948854 H        1 UNL1     0.2922
     47 H         0.160218   0.681234   2.241263 H        1 UNL1     0.2126
     48 H         1.107954   -1.947711   0.17997 H        1 UNL1     0.2101
     49 H         -1.784426   0.86843   -1.36515 H        1 UNL1     0.2100
     50 H         -2.675158   -3.358365   -1.10787 H        1 UNL1     0.2102
@<TRIPOS>BOND
     1     1     2    1
     2     1     6    1
     3     2     3    1
     4     3     4    1
     5     3    29    1
     6     3    33    1
     7     4     5    1
     8     5     6    1
     9     5     7    1
    10     5    35    1
    11     7     8    1
    12     8     9   ar
    13     8    13   ar
    14     9    10   ar
    15     9    36    1
    16    10    11   ar
    17    10    26    1
    18    11    12   ar
    19    11    14    1
    20    12    13   ar
    21    12    17    1
    22    13    37    1
    23    14    15    1
    24    14    25    2
    25    15    16    1
    26    15    38    1
    27    15    39    1
    28    16    17    1
    29    16    18    1
    30    16    40    1
    31    18    19   ar
    32    18    23   ar
    33    19    20   ar
    34    19    41    1
    35    20    21   ar
    36    20    42    1
    37    21    22   ar
    38    21    24    1
    39    22    23   ar
    40    22    43    1
    41    23    44    1
    42    24    45    1
    43    26    46    1
    44    27    47    1
    45    28    48    1
    46    29    49    1
    47    30    50    1
    48     1    31    1
    49     1    27    1
    50     2    32    1
    51     2    28    1
    52     4    34    1
    53     4    30    1
