@<TRIPOS>MOLECULE
*****
 50 53 0 0 0
SMALL
GASTEIGER

@<TRIPOS>ATOM
     1 C         1.236893   -0.023598   -1.800096 C.3        1 UNL1     0.1889
     2 C         -0.134297   0.105206   -1.083724 C.3        1 UNL1     0.1342
     3 C         -1.2009   -0.894735   -1.555893 C.3        1 UNL1     0.1174
     4 C         -1.098019   -1.210811   -3.050091 C.3        1 UNL1     0.1456
     5 C         0.346548   -1.507082   -3.492602 C.3        1 UNL1     0.2326
     6 O         1.190345   -0.404826   -3.167171 O.3        1 UNL1     -0.3076
     7 O         0.847849   -2.765971   -3.007611 O.3        1 UNL1     -0.4605
     8 C         -0.106244   -3.690406   -2.622051 C.ar        1 UNL1     0.1310
     9 C         -0.075519   -5.057672   -2.916904 C.ar        1 UNL1     0.0226
     10 C         -1.083305   -5.918211   -2.465527 C.ar        1 UNL1     0.1343
     11 C         -2.134844   -5.435902   -1.687398 C.ar        1 UNL1     0.1007
     12 C         -2.198163   -4.065567   -1.421021 C.ar        1 UNL1     0.1389
     13 C         -1.186119   -3.200075   -1.877225 C.ar        1 UNL1     0.0229
     14 C         -3.180955   -6.313939   -1.113938 C.2        1 UNL1     0.1740
     15 C         -4.102378   -5.664623   -0.123525 C.3        1 UNL1     0.0520
     16 C         -4.43986   -4.266887   -0.623923 C.3        1 UNL1     0.1322
     17 O         -3.244026   -3.467343   -0.75727 O.3        1 UNL1     -0.4828
     18 C         -5.350658   -4.256006   -1.853985 C.ar        1 UNL1     -0.0067
     19 C         -4.824751   -3.862361   -3.101654 C.ar        1 UNL1     -0.0516
     20 C         -5.641544   -3.795739   -4.236719 C.ar        1 UNL1     -0.0198
     21 C         -6.984437   -4.11243   -4.135865 C.ar        1 UNL1     0.1169
     22 C         -7.524238   -4.535695   -2.928264 C.ar        1 UNL1     -0.0198
     23 C         -6.703639   -4.620153   -1.797097 C.ar        1 UNL1     -0.0516
     24 O         -7.756997   -3.99947   -5.254253 O.3        1 UNL1     -0.5068
     25 O         -3.261262   -7.515747   -1.354131 O.2        1 UNL1     -0.2917
     26 O         -0.995056   -7.240902   -2.78846 O.3        1 UNL1     -0.5058
     27 O         2.184043   -0.791026   -1.074322 O.3        1 UNL1     -0.3648
     28 O         -0.651213   1.427514   -1.322479 O.3        1 UNL1     -0.3841
     29 O         -1.192426   -2.068029   -0.740148 O.3        1 UNL1     -0.3863
     30 O         -1.593907   -0.085635   -3.807563 O.3        1 UNL1     -0.3829
     31 H         1.670254   0.982097   -1.829334 H        1 UNL1     0.0937
     32 H         0.0   0.0   0.0 H        1 UNL1     0.0671
     33 H         -2.186058   -0.434918   -1.395422 H        1 UNL1     0.0649
     34 H         -1.734526   -2.068096   -3.295696 H        1 UNL1     0.0683
     35 H         0.284547   -1.549003   -4.58726 H        1 UNL1     0.1085
     36 H         0.743986   -5.503465   -3.469897 H        1 UNL1     0.0691
     37 H         -1.259227   -2.137149   -1.657371 H        1 UNL1     0.0691
     38 H         -3.579703   -5.624361   0.838097 H        1 UNL1     0.0385
     39 H         -4.995059   -6.287587   -0.001808 H        1 UNL1     0.0385
     40 H         -5.015635   -3.76966   0.168395 H        1 UNL1     0.0789
     41 H         -3.775897   -3.599921   -3.205007 H        1 UNL1     0.0623
     42 H         -5.226792   -3.479315   -5.19059 H        1 UNL1     0.0654
     43 H         -8.571252   -4.800536   -2.841473 H        1 UNL1     0.0654
     44 H         -7.156429   -4.964762   -0.872397 H        1 UNL1     0.0623
     45 H         -7.884056   -3.056018   -5.445227 H        1 UNL1     0.2921
     46 H         -1.619184   -7.748657   -2.246186 H        1 UNL1     0.2922
     47 H         2.902784   -0.225198   -0.759504 H        1 UNL1     0.2126
     48 H         0.089678   2.047482   -1.17947 H        1 UNL1     0.2101
     49 H         -0.592335   -2.729546   -1.119728 H        1 UNL1     0.2100
     50 H         -1.04096   0.692725   -3.588203 H        1 UNL1     0.2102
@<TRIPOS>BOND
     1     1     2    1
     2     1     6    1
     3     2     3    1
     4     3     4    1
     5     3    29    1
     6     3    33    1
     7     4     5    1
     8     5     6    1
     9     5     7    1
    10     5    35    1
    11     7     8    1
    12     8     9   ar
    13     8    13   ar
    14     9    10   ar
    15     9    36    1
    16    10    11   ar
    17    10    26    1
    18    11    12   ar
    19    11    14    1
    20    12    13   ar
    21    12    17    1
    22    13    37    1
    23    14    15    1
    24    14    25    2
    25    15    16    1
    26    15    38    1
    27    15    39    1
    28    16    17    1
    29    16    18    1
    30    16    40    1
    31    18    19   ar
    32    18    23   ar
    33    19    20   ar
    34    19    41    1
    35    20    21   ar
    36    20    42    1
    37    21    22   ar
    38    21    24    1
    39    22    23   ar
    40    22    43    1
    41    23    44    1
    42    24    45    1
    43    26    46    1
    44    27    47    1
    45    28    48    1
    46    29    49    1
    47    30    50    1
    48     1    31    1
    49     1    27    1
    50     2    32    1
    51     2    28    1
    52     4    34    1
    53     4    30    1
