@<TRIPOS>MOLECULE
*****
 50 53 0 0 0
SMALL
GASTEIGER

@<TRIPOS>ATOM
     1 C         -0.501124   -1.186376   1.764141 C.3        1 UNL1     0.1889
     2 C         -0.502703   -0.947549   0.230224 C.3        1 UNL1     0.1342
     3 C         -1.896087   -0.945754   -0.417034 C.3        1 UNL1     0.1174
     4 C         -2.860074   -1.932327   0.246681 C.3        1 UNL1     0.1456
     5 C         -2.830588   -1.843065   1.783407 C.3        1 UNL1     0.2326
     6 O         -1.50397   -2.062239   2.257658 O.3        1 UNL1     -0.3076
     7 O         -3.423906   -0.637492   2.299052 O.3        1 UNL1     -0.4605
     8 C         -4.037562   -0.744101   3.534199 C.ar        1 UNL1     0.1310
     9 C         -4.909456   -1.767872   3.920196 C.ar        1 UNL1     0.0226
     10 C         -5.468424   -1.797038   5.203398 C.ar        1 UNL1     0.1343
     11 C         -5.150029   -0.815071   6.140524 C.ar        1 UNL1     0.1007
     12 C         -4.312825   0.234743   5.753531 C.ar        1 UNL1     0.1389
     13 C         -3.753002   0.265276   4.46237 C.ar        1 UNL1     0.0229
     14 C         -5.645513   -0.842959   7.536186 C.2        1 UNL1     0.1740
     15 C         -5.028279   0.161448   8.464484 C.3        1 UNL1     0.0520
     16 C         -4.870505   1.477135   7.714795 C.3        1 UNL1     0.1322
     17 O         -4.019322   1.310157   6.559514 O.3        1 UNL1     -0.4828
     18 C         -6.196476   2.186107   7.428641 C.ar        1 UNL1     -0.0067
     19 C         -6.461734   2.659893   6.127343 C.ar        1 UNL1     -0.0516
     20 C         -7.643657   3.354153   5.842697 C.ar        1 UNL1     -0.0198
     21 C         -8.562843   3.586945   6.850037 C.ar        1 UNL1     0.1169
     22 C         -8.345319   3.103712   8.133784 C.ar        1 UNL1     -0.0198
     23 C         -7.171983   2.393383   8.414449 C.ar        1 UNL1     -0.0516
     24 O         -9.684876   4.299511   6.543945 O.3        1 UNL1     -0.5068
     25 O         -6.448005   -1.674451   7.952254 O.2        1 UNL1     -0.2917
     26 O         -6.312341   -2.822364   5.516598 O.3        1 UNL1     -0.5058
     27 O         -0.431673   0.010584   2.522594 O.3        1 UNL1     -0.3648
     28 O         0.258969   -1.996825   -0.39554 O.3        1 UNL1     -0.3841
     29 O         -2.422004   0.381257   -0.484754 O.3        1 UNL1     -0.3863
     30 O         -2.507755   -3.276427   -0.146963 O.3        1 UNL1     -0.3829
     31 H         0.4329   -1.708654   1.998455 H        1 UNL1     0.0937
     32 H         0.0   0.0   0.0 H        1 UNL1     0.0671
     33 H         -1.781091   -1.267676   -1.461478 H        1 UNL1     0.0649
     34 H         -3.88145   -1.752202   -0.106515 H        1 UNL1     0.0683
     35 H         -3.431789   -2.700919   2.109786 H        1 UNL1     0.1085
     36 H         -5.152439   -2.590406   3.256481 H        1 UNL1     0.0691
     37 H         -3.10506   1.094098   4.185388 H        1 UNL1     0.0691
     38 H         -4.056203   -0.23252   8.779736 H        1 UNL1     0.0385
     39 H         -5.660122   0.264523   9.353263 H        1 UNL1     0.0385
     40 H         -4.312282   2.158629   8.3709 H        1 UNL1     0.0789
     41 H         -5.751951   2.497973   5.32134 H        1 UNL1     0.0623
     42 H         -7.83122   3.724837   4.837996 H        1 UNL1     0.0654
     43 H         -9.065444   3.267305   8.926607 H        1 UNL1     0.0654
     44 H         -7.03961   2.021202   9.425787 H        1 UNL1     0.0623
     45 H         -10.459774   3.740543   6.716584 H        1 UNL1     0.2921
     46 H         -5.97957   -3.287307   6.300501 H        1 UNL1     0.2922
     47 H         0.345742   0.525517   2.265048 H        1 UNL1     0.2126
     48 H         1.167966   -1.929874   -0.044862 H        1 UNL1     0.2101
     49 H         -1.918297   0.903375   -1.129321 H        1 UNL1     0.2100
     50 H         -2.665517   -3.359626   -1.110239 H        1 UNL1     0.2102
@<TRIPOS>BOND
     1     1     2    1
     2     1     6    1
     3     2     3    1
     4     3     4    1
     5     3    29    1
     6     3    33    1
     7     4     5    1
     8     5     6    1
     9     5     7    1
    10     5    35    1
    11     7     8    1
    12     8     9   ar
    13     8    13   ar
    14     9    10   ar
    15     9    36    1
    16    10    11   ar
    17    10    26    1
    18    11    12   ar
    19    11    14    1
    20    12    13   ar
    21    12    17    1
    22    13    37    1
    23    14    15    1
    24    14    25    2
    25    15    16    1
    26    15    38    1
    27    15    39    1
    28    16    17    1
    29    16    18    1
    30    16    40    1
    31    18    19   ar
    32    18    23   ar
    33    19    20   ar
    34    19    41    1
    35    20    21   ar
    36    20    42    1
    37    21    22   ar
    38    21    24    1
    39    22    23   ar
    40    22    43    1
    41    23    44    1
    42    24    45    1
    43    26    46    1
    44    27    47    1
    45    28    48    1
    46    29    49    1
    47    30    50    1
    48     1    31    1
    49     1    27    1
    50     2    32    1
    51     2    28    1
    52     4    34    1
    53     4    30    1
