@<TRIPOS>MOLECULE
*****
 50 53 0 0 0
SMALL
GASTEIGER

@<TRIPOS>ATOM
     1 C         -0.264021   -1.401668   1.654214 C.3        1 UNL1     0.1889
     2 C         -0.449778   -0.986074   0.170059 C.3        1 UNL1     0.1342
     3 C         -1.90866   -0.96112   -0.311092 C.3        1 UNL1     0.1174
     4 C         -2.765083   -2.053685   0.333857 C.3        1 UNL1     0.1456
     5 C         -2.559106   -2.142936   1.857003 C.3        1 UNL1     0.2326
     6 O         -1.18147   -2.365991   2.14895 O.3        1 UNL1     -0.3076
     7 O         -3.116942   -1.028689   2.577138 O.3        1 UNL1     -0.4605
     8 C         -3.5873   -1.30301   3.848766 C.ar        1 UNL1     0.1310
     9 C         -4.389058   -2.394989   4.198148 C.ar        1 UNL1     0.0226
     10 C         -4.801385   -2.596313   5.520781 C.ar        1 UNL1     0.1343
     11 C         -4.401822   -1.722774   6.531285 C.ar        1 UNL1     0.1007
     12 C         -3.635195   -0.606031   6.187841 C.ar        1 UNL1     0.1389
     13 C         -3.22293   -0.402372   4.857431 C.ar        1 UNL1     0.0229
     14 C         -4.738616   -1.934057   7.958198 C.2        1 UNL1     0.1740
     15 C         -4.043584   -1.026888   8.930578 C.3        1 UNL1     0.0520
     16 C         -3.997932   0.373501   8.334941 C.3        1 UNL1     0.1322
     17 O         -3.276903   0.37502   7.083068 O.3        1 UNL1     -0.4828
     18 C         -5.362202   1.065378   8.282069 C.ar        1 UNL1     -0.0067
     19 C         -5.77265   1.697013   7.090102 C.ar        1 UNL1     -0.0516
     20 C         -6.993209   2.379356   7.022242 C.ar        1 UNL1     -0.0198
     21 C         -7.807078   2.443406   8.139086 C.ar        1 UNL1     0.1169
     22 C         -7.445713   1.802997   9.317276 C.ar        1 UNL1     -0.0198
     23 C         -6.233745   1.10495   9.379903 C.ar        1 UNL1     -0.0516
     24 O         -8.970746   3.148894   8.046539 O.3        1 UNL1     -0.5068
     25 O         -5.472155   -2.836439   8.35331 O.2        1 UNL1     -0.2917
     26 O         -5.583393   -3.680184   5.795138 O.3        1 UNL1     -0.5058
     27 O         -0.13532   -0.299416   2.538104 O.3        1 UNL1     -0.3648
     28 O         0.258682   -1.926068   -0.658918 O.3        1 UNL1     -0.3841
     29 O         -2.47035   0.344109   -0.159389 O.3        1 UNL1     -0.3863
     30 O         -2.429042   -3.328654   -0.255397 O.3        1 UNL1     -0.3829
     31 H         0.7031   -1.91232   1.717384 H        1 UNL1     0.0937
     32 H         0.0   0.0   0.0 H        1 UNL1     0.0671
     33 H         -1.908349   -1.154695   -1.392872 H        1 UNL1     0.0649
     34 H         -3.824619   -1.872047   0.122221 H        1 UNL1     0.0683
     35 H         -3.097632   -3.054876   2.143768 H        1 UNL1     0.1085
     36 H         -4.686722   -3.140349   3.468795 H        1 UNL1     0.0691
     37 H         -2.627456   0.475434   4.61585 H        1 UNL1     0.0691
     38 H         -3.034389   -1.421882   9.088793 H        1 UNL1     0.0385
     39 H         -4.574906   -1.052451   9.888086 H        1 UNL1     0.0385
     40 H         -3.384901   0.990697   9.005599 H        1 UNL1     0.0789
     41 H         -5.147535   1.668945   6.202355 H        1 UNL1     0.0623
     42 H         -7.293078   2.872492   6.10088 H        1 UNL1     0.0654
     43 H         -8.082525   1.834088   10.193297 H        1 UNL1     0.0654
     44 H         -5.988022   0.607447   10.313154 H        1 UNL1     0.0623
     45 H         -8.753769   4.072891   7.841923 H        1 UNL1     0.2921
     46 H         -5.157166   -4.222159   6.477784 H        1 UNL1     0.2922
     47 H         0.591599   0.273061   2.255761 H        1 UNL1     0.2126
     48 H         1.203187   -1.851397   -0.422134 H        1 UNL1     0.2101
     49 H         -2.063758   0.954285   -0.795126 H        1 UNL1     0.2100
     50 H         -2.700956   -3.306986   -1.196304 H        1 UNL1     0.2102
@<TRIPOS>BOND
     1     1     2    1
     2     1     6    1
     3     2     3    1
     4     3     4    1
     5     3    29    1
     6     3    33    1
     7     4     5    1
     8     5     6    1
     9     5     7    1
    10     5    35    1
    11     7     8    1
    12     8     9   ar
    13     8    13   ar
    14     9    10   ar
    15     9    36    1
    16    10    11   ar
    17    10    26    1
    18    11    12   ar
    19    11    14    1
    20    12    13   ar
    21    12    17    1
    22    13    37    1
    23    14    15    1
    24    14    25    2
    25    15    16    1
    26    15    38    1
    27    15    39    1
    28    16    17    1
    29    16    18    1
    30    16    40    1
    31    18    19   ar
    32    18    23   ar
    33    19    20   ar
    34    19    41    1
    35    20    21   ar
    36    20    42    1
    37    21    22   ar
    38    21    24    1
    39    22    23   ar
    40    22    43    1
    41    23    44    1
    42    24    45    1
    43    26    46    1
    44    27    47    1
    45    28    48    1
    46    29    49    1
    47    30    50    1
    48     1    31    1
    49     1    27    1
    50     2    32    1
    51     2    28    1
    52     4    34    1
    53     4    30    1
