@<TRIPOS>MOLECULE
*****
 50 53 0 0 0
SMALL
GASTEIGER

@<TRIPOS>ATOM
     1 C         -0.390873   -1.380864   1.646583 C.3        1 UNL1     0.1889
     2 C         -0.492366   -0.968291   0.153458 C.3        1 UNL1     0.1342
     3 C         -1.92546   -0.894306   -0.395388 C.3        1 UNL1     0.1174
     4 C         -2.849675   -1.951497   0.213948 C.3        1 UNL1     0.1456
     5 C         -2.718075   -2.038417   1.745447 C.3        1 UNL1     0.2326
     6 O         -1.364414   -2.308669   2.102427 O.3        1 UNL1     -0.3076
     7 O         -3.268355   -0.900434   2.433565 O.3        1 UNL1     -0.4605
     8 C         -2.888762   -0.749345   3.755158 C.ar        1 UNL1     0.1310
     9 C         -3.755002   -0.488331   4.822304 C.ar        1 UNL1     0.0226
     10 C         -3.274622   -0.368769   6.131824 C.ar        1 UNL1     0.1343
     11 C         -1.918019   -0.531122   6.409511 C.ar        1 UNL1     0.1007
     12 C         -1.037768   -0.751306   5.34675 C.ar        1 UNL1     0.1389
     13 C         -1.520691   -0.868856   4.029784 C.ar        1 UNL1     0.0229
     14 C         -1.36791   -0.498376   7.784452 C.2        1 UNL1     0.1740
     15 C         0.068156   -0.912018   7.919222 C.3        1 UNL1     0.0520
     16 C         0.84886   -0.33077   6.748492 C.3        1 UNL1     0.1322
     17 O         0.328441   -0.818814   5.492289 O.3        1 UNL1     -0.4828
     18 C         1.021099   1.188588   6.816385 C.ar        1 UNL1     -0.0067
     19 C         1.882395   1.829459   5.902236 C.ar        1 UNL1     -0.0516
     20 C         2.099121   3.211051   5.967032 C.ar        1 UNL1     -0.0198
     21 C         1.467615   3.960091   6.943744 C.ar        1 UNL1     0.1169
     22 C         0.58781   3.362804   7.837069 C.ar        1 UNL1     -0.0198
     23 C         0.356627   1.984109   7.760852 C.ar        1 UNL1     -0.0516
     24 O         1.732337   5.296947   6.999761 O.3        1 UNL1     -0.5068
     25 O         -2.04186   -0.232297   8.776156 O.2        1 UNL1     -0.2917
     26 O         -4.171638   -0.112501   7.127452 O.3        1 UNL1     -0.5058
     27 O         -0.263848   -0.278345   2.530383 O.3        1 UNL1     -0.3648
     28 O         0.219605   -1.938202   -0.63716 O.3        1 UNL1     -0.3841
     29 O         -2.446295   0.431079   -0.276144 O.3        1 UNL1     -0.3863
     30 O         -2.53267   -3.24135   -0.353041 O.3        1 UNL1     -0.3829
     31 H         0.553276   -1.925312   1.75721 H        1 UNL1     0.0937
     32 H         0.0   0.0   0.0 H        1 UNL1     0.0671
     33 H         -1.881819   -1.094602   -1.475063 H        1 UNL1     0.0649
     34 H         -3.89101   -1.733486   -0.047766 H        1 UNL1     0.0683
     35 H         -3.301795   -2.928717   2.010995 H        1 UNL1     0.1085
     36 H         -4.827025   -0.407193   4.679813 H        1 UNL1     0.0691
     37 H         -0.814632   -1.03926   3.219885 H        1 UNL1     0.0691
     38 H         0.099705   -2.006757   7.910361 H        1 UNL1     0.0385
     39 H         0.452048   -0.566575   8.88518 H        1 UNL1     0.0385
     40 H         1.86628   -0.741246   6.802205 H        1 UNL1     0.0789
     41 H         2.397008   1.262342   5.13204 H        1 UNL1     0.0623
     42 H         2.774829   3.691753   5.263928 H        1 UNL1     0.0654
     43 H         0.076393   3.942335   8.59635 H        1 UNL1     0.0654
     44 H         -0.345088   1.55239   8.468001 H        1 UNL1     0.0623
     45 H         2.570206   5.463284   6.538214 H        1 UNL1     0.2921
     46 H         -4.08704   0.812149   7.409016 H        1 UNL1     0.2922
     47 H         -1.137823   0.041978   2.793863 H        1 UNL1     0.2126
     48 H         -0.329818   -2.114396   -1.425083 H        1 UNL1     0.2101
     49 H         -3.002234   0.497114   0.516551 H        1 UNL1     0.2100
     50 H         -2.005846   -3.739162   0.306013 H        1 UNL1     0.2102
@<TRIPOS>BOND
     1     1     2    1
     2     1     6    1
     3     2     3    1
     4     3     4    1
     5     3    29    1
     6     3    33    1
     7     4     5    1
     8     5     6    1
     9     5     7    1
    10     5    35    1
    11     7     8    1
    12     8     9   ar
    13     8    13   ar
    14     9    10   ar
    15     9    36    1
    16    10    11   ar
    17    10    26    1
    18    11    12   ar
    19    11    14    1
    20    12    13   ar
    21    12    17    1
    22    13    37    1
    23    14    15    1
    24    14    25    2
    25    15    16    1
    26    15    38    1
    27    15    39    1
    28    16    17    1
    29    16    18    1
    30    16    40    1
    31    18    19   ar
    32    18    23   ar
    33    19    20   ar
    34    19    41    1
    35    20    21   ar
    36    20    42    1
    37    21    22   ar
    38    21    24    1
    39    22    23   ar
    40    22    43    1
    41    23    44    1
    42    24    45    1
    43    26    46    1
    44    27    47    1
    45    28    48    1
    46    29    49    1
    47    30    50    1
    48     1    31    1
    49     1    27    1
    50     2    32    1
    51     2    28    1
    52     4    34    1
    53     4    30    1
