@<TRIPOS>MOLECULE
*****
 50 53 0 0 0
SMALL
GASTEIGER

@<TRIPOS>ATOM
     1 C         1.236893   -0.023598   -1.800096 C.3        1 UNL1     0.1889
     2 C         -0.134297   0.105206   -1.083724 C.3        1 UNL1     0.1342
     3 C         -1.2009   -0.894735   -1.555893 C.3        1 UNL1     0.1174
     4 C         -1.098019   -1.210811   -3.050091 C.3        1 UNL1     0.1456
     5 C         0.346548   -1.507082   -3.492602 C.3        1 UNL1     0.2326
     6 O         1.190345   -0.404826   -3.167171 O.3        1 UNL1     -0.3076
     7 O         0.847849   -2.765971   -3.007611 O.3        1 UNL1     -0.4605
     8 C         1.15331   -3.709062   -3.972391 C.ar        1 UNL1     0.1310
     9 C         0.999233   -3.536101   -5.352117 C.ar        1 UNL1     0.0226
     10 C         1.354147   -4.54772   -6.252431 C.ar        1 UNL1     0.1343
     11 C         1.894561   -5.749056   -5.795719 C.ar        1 UNL1     0.1007
     12 C         2.014918   -5.949251   -4.41796 C.ar        1 UNL1     0.1389
     13 C         1.655515   -4.932934   -3.512774 C.ar        1 UNL1     0.0229
     14 C         2.364459   -6.818534   -6.706524 C.2        1 UNL1     0.1740
     15 C         3.119185   -7.940368   -6.055811 C.3        1 UNL1     0.0520
     16 C         2.438459   -8.277413   -4.736353 C.3        1 UNL1     0.1322
     17 O         2.433047   -7.132707   -3.855053 O.3        1 UNL1     -0.4828
     18 C         1.077163   -8.957385   -4.901378 C.ar        1 UNL1     -0.0067
     19 C         0.757171   -10.070748   -4.097486 C.ar        1 UNL1     -0.0516
     20 C         -0.459608   -10.744867   -4.255522 C.ar        1 UNL1     -0.0198
     21 C         -1.359673   -10.320908   -5.216755 C.ar        1 UNL1     0.1169
     22 C         -1.087449   -9.207351   -6.000798 C.ar        1 UNL1     -0.0198
     23 C         0.121303   -8.521838   -5.83037 C.ar        1 UNL1     -0.0516
     24 O         -2.517973   -11.025185   -5.367538 O.3        1 UNL1     -0.5068
     25 O         2.22957   -6.77524   -7.92653 O.2        1 UNL1     -0.2917
     26 O         1.177971   -4.316308   -7.585471 O.3        1 UNL1     -0.5058
     27 O         2.184043   -0.791026   -1.074322 O.3        1 UNL1     -0.3648
     28 O         -0.651213   1.427514   -1.322479 O.3        1 UNL1     -0.3841
     29 O         -1.192426   -2.068029   -0.740148 O.3        1 UNL1     -0.3863
     30 O         -1.593907   -0.085635   -3.807563 O.3        1 UNL1     -0.3829
     31 H         1.670254   0.982097   -1.829334 H        1 UNL1     0.0937
     32 H         0.0   0.0   0.0 H        1 UNL1     0.0671
     33 H         -2.186058   -0.434918   -1.395422 H        1 UNL1     0.0649
     34 H         -1.734526   -2.068096   -3.295696 H        1 UNL1     0.0683
     35 H         0.284547   -1.549003   -4.58726 H        1 UNL1     0.1085
     36 H         0.63714   -2.604551   -5.773097 H        1 UNL1     0.0691
     37 H         1.757813   -5.114105   -2.44497 H        1 UNL1     0.0691
     38 H         4.146865   -7.598042   -5.893899 H        1 UNL1     0.0385
     39 H         3.147463   -8.797025   -6.737806 H        1 UNL1     0.0385
     40 H         3.071525   -9.014891   -4.224618 H        1 UNL1     0.0789
     41 H         1.450687   -10.428735   -3.342151 H        1 UNL1     0.0623
     42 H         -0.689651   -11.609338   -3.637637 H        1 UNL1     0.0654
     43 H         -1.791724   -8.85769   -6.746214 H        1 UNL1     0.0654
     44 H         0.296466   -7.649656   -6.452834 H        1 UNL1     0.0623
     45 H         -2.72646   -11.457011   -4.523277 H        1 UNL1     0.2921
     46 H         2.027693   -4.075225   -7.987047 H        1 UNL1     0.2922
     47 H         2.90022   -0.224333   -0.755244 H        1 UNL1     0.2126
     48 H         0.089678   2.047482   -1.17947 H        1 UNL1     0.2101
     49 H         -2.068515   -2.485278   -0.753062 H        1 UNL1     0.2100
     50 H         -1.04096   0.692725   -3.588203 H        1 UNL1     0.2102
@<TRIPOS>BOND
     1     1     2    1
     2     1     6    1
     3     2     3    1
     4     3     4    1
     5     3    29    1
     6     3    33    1
     7     4     5    1
     8     5     6    1
     9     5     7    1
    10     5    35    1
    11     7     8    1
    12     8     9   ar
    13     8    13   ar
    14     9    10   ar
    15     9    36    1
    16    10    11   ar
    17    10    26    1
    18    11    12   ar
    19    11    14    1
    20    12    13   ar
    21    12    17    1
    22    13    37    1
    23    14    15    1
    24    14    25    2
    25    15    16    1
    26    15    38    1
    27    15    39    1
    28    16    17    1
    29    16    18    1
    30    16    40    1
    31    18    19   ar
    32    18    23   ar
    33    19    20   ar
    34    19    41    1
    35    20    21   ar
    36    20    42    1
    37    21    22   ar
    38    21    24    1
    39    22    23   ar
    40    22    43    1
    41    23    44    1
    42    24    45    1
    43    26    46    1
    44    27    47    1
    45    28    48    1
    46    29    49    1
    47    30    50    1
    48     1    31    1
    49     1    27    1
    50     2    32    1
    51     2    28    1
    52     4    34    1
    53     4    30    1
