@<TRIPOS>MOLECULE
*****
 50 53 0 0 0
SMALL
GASTEIGER

@<TRIPOS>ATOM
     1 C         1.605417   -1.473642   0.147709 C.3        1 UNL1     0.1889
     2 C         0.630108   -0.590741   -0.676425 C.3        1 UNL1     0.1342
     3 C         -0.270109   -1.366591   -1.650147 C.3        1 UNL1     0.1174
     4 C         0.427427   -2.584532   -2.261032 C.3        1 UNL1     0.1456
     5 C         1.168204   -3.429819   -1.208843 C.3        1 UNL1     0.2326
     6 O         2.115623   -2.621197   -0.515015 O.3        1 UNL1     -0.3076
     7 O         0.286765   -4.150316   -0.328349 O.3        1 UNL1     -0.4605
     8 C         0.275101   -3.734665   0.990978 C.ar        1 UNL1     0.1310
     9 C         -0.843593   -3.735889   1.831111 C.ar        1 UNL1     0.0226
     10 C         -0.750013   -3.310338   3.161544 C.ar        1 UNL1     0.1343
     11 C         0.470954   -2.895296   3.69147 C.ar        1 UNL1     0.1007
     12 C         1.58632   -2.850813   2.850778 C.ar        1 UNL1     0.1389
     13 C         1.491391   -3.276251   1.512338 C.ar        1 UNL1     0.0229
     14 C         0.644516   -2.51515   5.112568 C.2        1 UNL1     0.1740
     15 C         2.061686   -2.311995   5.561905 C.3        1 UNL1     0.0520
     16 C         2.81762   -1.585286   4.458086 C.3        1 UNL1     0.1322
     17 O         2.811036   -2.358094   3.237515 O.3        1 UNL1     -0.4828
     18 C         2.400308   -0.122858   4.285225 C.ar        1 UNL1     -0.0067
     19 C         2.869841   0.843843   5.198046 C.ar        1 UNL1     -0.0516
     20 C         2.469625   2.181579   5.096796 C.ar        1 UNL1     -0.0198
     21 C         1.596418   2.563026   4.093883 C.ar        1 UNL1     0.1169
     22 C         1.143155   1.640589   3.159805 C.ar        1 UNL1     -0.0198
     23 C         1.557759   0.306395   3.249731 C.ar        1 UNL1     -0.0516
     24 O         1.199027   3.867064   4.049539 O.3        1 UNL1     -0.5068
     25 O         -0.285461   -2.442978   5.911579 O.2        1 UNL1     -0.2917
     26 O         -1.878569   -3.33497   3.927925 O.3        1 UNL1     -0.5058
     27 O         1.12431   -1.788488   1.444704 O.3        1 UNL1     -0.3648
     28 O         1.404789   0.338371   -1.457017 O.3        1 UNL1     -0.3841
     29 O         -1.518036   -1.693959   -1.035623 O.3        1 UNL1     -0.3863
     30 O         1.379007   -2.138168   -3.251458 O.3        1 UNL1     -0.3829
     31 H         2.498196   -0.865965   0.331431 H        1 UNL1     0.0937
     32 H         -0.0   0.0   0.0 H        1 UNL1     0.0671
     33 H         -0.522065   -0.694195   -2.482086 H        1 UNL1     0.0649
     34 H         -0.304394   -3.213318   -2.780134 H        1 UNL1     0.0683
     35 H         1.740689   -4.151658   -1.804736 H        1 UNL1     0.1085
     36 H         -1.808528   -4.099514   1.495256 H        1 UNL1     0.0691
     37 H         2.374141   -3.230795   0.878163 H        1 UNL1     0.0691
     38 H         2.493773   -3.300288   5.751917 H        1 UNL1     0.0385
     39 H         2.063   -1.751438   6.502944 H        1 UNL1     0.0385
     40 H         3.874172   -1.552634   4.756668 H        1 UNL1     0.0789
     41 H         3.548777   0.567993   5.999671 H        1 UNL1     0.0623
     42 H         2.829248   2.915324   5.813944 H        1 UNL1     0.0654
     43 H         0.470986   1.931517   2.361393 H        1 UNL1     0.0654
     44 H         1.192342   -0.385222   2.49675 H        1 UNL1     0.0623
     45 H         0.30657   3.902936   3.668817 H        1 UNL1     0.2921
     46 H         -1.689776   -3.783181   4.767493 H        1 UNL1     0.2922
     47 H         1.835291   -1.703784   2.095235 H        1 UNL1     0.2126
     48 H         1.440058   -0.020236   -2.3647 H        1 UNL1     0.2101
     49 H         -1.363548   -2.066447   -0.152912 H        1 UNL1     0.2100
     50 H         1.922245   -1.428907   -2.849521 H        1 UNL1     0.2102
@<TRIPOS>BOND
     1     1     2    1
     2     1     6    1
     3     2     3    1
     4     3     4    1
     5     3    29    1
     6     3    33    1
     7     4     5    1
     8     5     6    1
     9     5     7    1
    10     5    35    1
    11     7     8    1
    12     8     9   ar
    13     8    13   ar
    14     9    10   ar
    15     9    36    1
    16    10    11   ar
    17    10    26    1
    18    11    12   ar
    19    11    14    1
    20    12    13   ar
    21    12    17    1
    22    13    37    1
    23    14    15    1
    24    14    25    2
    25    15    16    1
    26    15    38    1
    27    15    39    1
    28    16    17    1
    29    16    18    1
    30    16    40    1
    31    18    19   ar
    32    18    23   ar
    33    19    20   ar
    34    19    41    1
    35    20    21   ar
    36    20    42    1
    37    21    22   ar
    38    21    24    1
    39    22    23   ar
    40    22    43    1
    41    23    44    1
    42    24    45    1
    43    26    46    1
    44    27    47    1
    45    28    48    1
    46    29    49    1
    47    30    50    1
    48     1    31    1
    49     1    27    1
    50     2    32    1
    51     2    28    1
    52     4    34    1
    53     4    30    1
