@<TRIPOS>MOLECULE
*****
 50 53 0 0 0
SMALL
GASTEIGER

@<TRIPOS>ATOM
     1 C         -0.336305   -1.33169   1.698325 C.3        1 UNL1     0.1889
     2 C         -0.464771   -0.97484   0.192969 C.3        1 UNL1     0.1342
     3 C         -1.905141   -0.957822   -0.341362 C.3        1 UNL1     0.1174
     4 C         -2.79432   -2.016708   0.315326 C.3        1 UNL1     0.1456
     5 C         -2.644004   -2.046076   1.847288 C.3        1 UNL1     0.2326
     6 O         -1.279879   -2.268019   2.197675 O.3        1 UNL1     -0.3076
     7 O         -3.216919   -0.899334   2.501559 O.3        1 UNL1     -0.4605
     8 C         -3.728374   -1.116779   3.76831 C.ar        1 UNL1     0.1310
     9 C         -4.547527   -2.188826   4.138453 C.ar        1 UNL1     0.0226
     10 C         -5.002106   -2.331455   5.454857 C.ar        1 UNL1     0.1343
     11 C         -4.628672   -1.417598   6.439363 C.ar        1 UNL1     0.1007
     12 C         -3.84466   -0.320381   6.072995 C.ar        1 UNL1     0.1389
     13 C         -3.389887   -0.17575   4.748724 C.ar        1 UNL1     0.0229
     14 C         -5.011066   -1.566106   7.862695 C.2        1 UNL1     0.1740
     15 C         -4.340912   -0.621756   8.816974 C.3        1 UNL1     0.0520
     16 C         -4.267861   0.751692   8.164086 C.3        1 UNL1     0.1322
     17 O         -3.508206   0.696175   6.936522 O.3        1 UNL1     -0.4828
     18 C         -5.625411   1.447503   8.039074 C.ar        1 UNL1     -0.0067
     19 C         -6.001619   2.015071   6.804348 C.ar        1 UNL1     -0.0516
     20 C         -7.215203   2.699707   6.668515 C.ar        1 UNL1     -0.0198
     21 C         -8.056058   2.82972   7.759334 C.ar        1 UNL1     0.1169
     22 C         -7.728636   2.252919   8.979553 C.ar        1 UNL1     -0.0198
     23 C         -6.523625   1.552365   9.110806 C.ar        1 UNL1     -0.0516
     24 O         -9.21199   3.535781   7.599023 O.3        1 UNL1     -0.5068
     25 O         -5.762256   -2.44712   8.272588 O.2        1 UNL1     -0.2917
     26 O         -5.799131   -3.398702   5.750354 O.3        1 UNL1     -0.5058
     27 O         -0.229147   -0.195734   2.541478 O.3        1 UNL1     -0.3648
     28 O         0.264198   -1.953053   -0.571498 O.3        1 UNL1     -0.3841
     29 O         -2.459718   0.356847   -0.262476 O.3        1 UNL1     -0.3863
     30 O         -2.449245   -3.317011   -0.209863 O.3        1 UNL1     -0.3829
     31 H         0.623121   -1.846979   1.816897 H        1 UNL1     0.0937
     32 H         0.0   0.0   0.0 H        1 UNL1     0.0671
     33 H         -1.867795   -1.194864   -1.413806 H        1 UNL1     0.0649
     34 H         -3.843835   -1.835414   0.058321 H        1 UNL1     0.0683
     35 H         -3.20096   -2.941439   2.15061 H        1 UNL1     0.1085
     36 H         -4.827054   -2.963133   3.432455 H        1 UNL1     0.0691
     37 H         -2.781628   0.687954   4.488861 H        1 UNL1     0.0691
     38 H         -3.339657   -1.014685   9.023422 H        1 UNL1     0.0385
     39 H         -4.901943   -0.603773   9.757559 H        1 UNL1     0.0385
     40 H         -3.672111   1.39387   8.826814 H        1 UNL1     0.0789
     41 H         -5.354883   1.934662   5.935488 H        1 UNL1     0.0623
     42 H         -7.488576   3.143213   5.714271 H        1 UNL1     0.0654
     43 H         -8.386754   2.335769   9.836248 H        1 UNL1     0.0654
     44 H         -6.304705   1.105465   10.075793 H        1 UNL1     0.0623
     45 H         -8.983463   4.445137   7.346905 H        1 UNL1     0.2921
     46 H         -5.39781   -3.913177   6.468455 H        1 UNL1     0.2922
     47 H         0.513596   0.358438   2.263834 H        1 UNL1     0.2126
     48 H         1.199811   -1.878277   -0.301742 H        1 UNL1     0.2101
     49 H         -2.019161   0.939735   -0.901182 H        1 UNL1     0.2100
     50 H         -2.686988   -3.331168   -1.160121 H        1 UNL1     0.2102
@<TRIPOS>BOND
     1     1     2    1
     2     1     6    1
     3     2     3    1
     4     3     4    1
     5     3    29    1
     6     3    33    1
     7     4     5    1
     8     5     6    1
     9     5     7    1
    10     5    35    1
    11     7     8    1
    12     8     9   ar
    13     8    13   ar
    14     9    10   ar
    15     9    36    1
    16    10    11   ar
    17    10    26    1
    18    11    12   ar
    19    11    14    1
    20    12    13   ar
    21    12    17    1
    22    13    37    1
    23    14    15    1
    24    14    25    2
    25    15    16    1
    26    15    38    1
    27    15    39    1
    28    16    17    1
    29    16    18    1
    30    16    40    1
    31    18    19   ar
    32    18    23   ar
    33    19    20   ar
    34    19    41    1
    35    20    21   ar
    36    20    42    1
    37    21    22   ar
    38    21    24    1
    39    22    23   ar
    40    22    43    1
    41    23    44    1
    42    24    45    1
    43    26    46    1
    44    27    47    1
    45    28    48    1
    46    29    49    1
    47    30    50    1
    48     1    31    1
    49     1    27    1
    50     2    32    1
    51     2    28    1
    52     4    34    1
    53     4    30    1
