@<TRIPOS>MOLECULE
*****
 50 53 0 0 0
SMALL
GASTEIGER

@<TRIPOS>ATOM
     1 C         -0.886684   -1.753576   -0.953712 C.3        1 UNL1     0.1889
     2 C         -0.680786   -0.817618   0.267569 C.3        1 UNL1     0.1342
     3 C         -0.152532   -1.516866   1.529498 C.3        1 UNL1     0.1174
     4 C         -0.688557   -2.942019   1.686765 C.3        1 UNL1     0.1456
     5 C         -0.601992   -3.752642   0.380717 C.3        1 UNL1     0.2326
     6 O         -1.307265   -3.077274   -0.658194 O.3        1 UNL1     -0.3076
     7 O         0.74395   -4.106278   0.013698 O.3        1 UNL1     -0.4605
     8 C         1.429828   -3.175177   -0.745347 C.ar        1 UNL1     0.1310
     9 C         2.644484   -2.57778   -0.391754 C.ar        1 UNL1     0.0226
     10 C         3.27114   -1.655786   -1.23859 C.ar        1 UNL1     0.1343
     11 C         2.709678   -1.326435   -2.471525 C.ar        1 UNL1     0.1007
     12 C         1.476495   -1.885357   -2.817431 C.ar        1 UNL1     0.1389
     13 C         0.845287   -2.810383   -1.964591 C.ar        1 UNL1     0.0229
     14 C         3.370304   -0.422742   -3.44161 C.2        1 UNL1     0.1740
     15 C         2.738579   -0.355978   -4.801027 C.3        1 UNL1     0.0520
     16 C         1.225787   -0.350963   -4.629579 C.3        1 UNL1     0.1322
     17 O         0.782032   -1.549727   -3.95644 O.3        1 UNL1     -0.4828
     18 C         0.677124   0.949304   -4.037126 C.ar        1 UNL1     -0.0067
     19 C         1.574663   1.91851   -3.543894 C.ar        1 UNL1     -0.0516
     20 C         1.105137   3.097516   -2.95275 C.ar        1 UNL1     -0.0198
     21 C         -0.25657   3.315283   -2.842481 C.ar        1 UNL1     0.1169
     22 C         -1.164994   2.394892   -3.348922 C.ar        1 UNL1     -0.0198
     23 C         -0.695576   1.224296   -3.956712 C.ar        1 UNL1     -0.0516
     24 O         -0.676825   4.457523   -2.226791 O.3        1 UNL1     -0.5068
     25 O         4.412536   0.18114   -3.201684 O.2        1 UNL1     -0.2917
     26 O         4.453725   -1.108337   -0.83439 O.3        1 UNL1     -0.5058
     27 O         0.200171   -1.74062   -1.865504 O.3        1 UNL1     -0.3648
     28 O         -1.94784   -0.223489   0.605637 O.3        1 UNL1     -0.3841
     29 O         1.273979   -1.452824   1.585157 O.3        1 UNL1     -0.3863
     30 O         -2.069059   -2.885229   2.107096 O.3        1 UNL1     -0.3829
     31 H         -1.724191   -1.340684   -1.526583 H        1 UNL1     0.0937
     32 H         0.0   0.0   0.0 H        1 UNL1     0.0671
     33 H         -0.504393   -0.94703   2.400818 H        1 UNL1     0.0649
     34 H         -0.134927   -3.46502   2.474398 H        1 UNL1     0.0683
     35 H         -1.161267   -4.670441   0.601476 H        1 UNL1     0.1085
     36 H         3.159614   -2.833928   0.527566 H        1 UNL1     0.0691
     37 H         -0.114856   -3.230415   -2.256467 H        1 UNL1     0.0691
     38 H         3.0694   -1.235575   -5.363515 H        1 UNL1     0.0385
     39 H         3.09932   0.538075   -5.320945 H        1 UNL1     0.0385
     40 H         0.785984   -0.42111   -5.633656 H        1 UNL1     0.0789
     41 H         2.648108   1.766991   -3.610287 H        1 UNL1     0.0623
     42 H         1.807185   3.83179   -2.565474 H        1 UNL1     0.0654
     43 H         -2.233304   2.562401   -3.281355 H        1 UNL1     0.0654
     44 H         -1.433363   0.532069   -4.350842 H        1 UNL1     0.0623
     45 H         -1.403072   4.837209   -2.747483 H        1 UNL1     0.2921
     46 H         5.106453   -1.185043   -1.548164 H        1 UNL1     0.2922
     47 H         1.007725   -2.044702   -1.428182 H        1 UNL1     0.2126
     48 H         -2.479428   -0.213302   -0.213535 H        1 UNL1     0.2101
     49 H         1.64566   -1.599333   0.700747 H        1 UNL1     0.2100
     50 H         -2.62963   -3.085057   1.32893 H        1 UNL1     0.2102
@<TRIPOS>BOND
     1     1     2    1
     2     1     6    1
     3     2     3    1
     4     3     4    1
     5     3    29    1
     6     3    33    1
     7     4     5    1
     8     5     6    1
     9     5     7    1
    10     5    35    1
    11     7     8    1
    12     8     9   ar
    13     8    13   ar
    14     9    10   ar
    15     9    36    1
    16    10    11   ar
    17    10    26    1
    18    11    12   ar
    19    11    14    1
    20    12    13   ar
    21    12    17    1
    22    13    37    1
    23    14    15    1
    24    14    25    2
    25    15    16    1
    26    15    38    1
    27    15    39    1
    28    16    17    1
    29    16    18    1
    30    16    40    1
    31    18    19   ar
    32    18    23   ar
    33    19    20   ar
    34    19    41    1
    35    20    21   ar
    36    20    42    1
    37    21    22   ar
    38    21    24    1
    39    22    23   ar
    40    22    43    1
    41    23    44    1
    42    24    45    1
    43    26    46    1
    44    27    47    1
    45    28    48    1
    46    29    49    1
    47    30    50    1
    48     1    31    1
    49     1    27    1
    50     2    32    1
    51     2    28    1
    52     4    34    1
    53     4    30    1
