@<TRIPOS>MOLECULE
*****
 50 53 0 0 0
SMALL
GASTEIGER

@<TRIPOS>ATOM
     1 C         -0.345644   -1.336358   1.692773 C.3        1 UNL1     0.1889
     2 C         -0.469126   -0.973647   0.188402 C.3        1 UNL1     0.1342
     3 C         -1.908151   -0.948949   -0.349243 C.3        1 UNL1     0.1174
     4 C         -2.803111   -2.006585   0.301579 C.3        1 UNL1     0.1456
     5 C         -2.656531   -2.042002   1.833774 C.3        1 UNL1     0.2326
     6 O         -1.294136   -2.270662   2.186568 O.3        1 UNL1     -0.3076
     7 O         -3.226392   -0.895303   2.490783 O.3        1 UNL1     -0.4605
     8 C         -3.748496   -1.116811   3.752476 C.ar        1 UNL1     0.1310
     9 C         -4.577567   -2.185432   4.110233 C.ar        1 UNL1     0.0226
     10 C         -5.042651   -2.332813   5.422436 C.ar        1 UNL1     0.1343
     11 C         -4.670188   -1.427421   6.415098 C.ar        1 UNL1     0.1007
     12 C         -3.876112   -0.333414   6.061013 C.ar        1 UNL1     0.1389
     13 C         -3.410763   -0.183986   4.740955 C.ar        1 UNL1     0.0229
     14 C         -5.063907   -1.581811   7.834711 C.2        1 UNL1     0.1740
     15 C         -4.394312   -0.647772   8.799472 C.3        1 UNL1     0.0520
     16 C         -4.307207   0.729018   8.155409 C.3        1 UNL1     0.1322
     17 O         -3.539051   0.675648   6.933051 O.3        1 UNL1     -0.4828
     18 C         -5.659063   1.434814   8.024788 C.ar        1 UNL1     -0.0067
     19 C         -6.015285   2.026892   6.795656 C.ar        1 UNL1     -0.0516
     20 C         -7.223104   2.72088   6.655958 C.ar        1 UNL1     -0.0198
     21 C         -8.077999   2.8359   7.737508 C.ar        1 UNL1     0.1169
     22 C         -7.770412   2.235135   8.951309 C.ar        1 UNL1     -0.0198
     23 C         -6.57119   1.525365   9.086023 C.ar        1 UNL1     -0.0516
     24 O         -9.227722   3.55142   7.574508 O.3        1 UNL1     -0.5068
     25 O         -5.824013   -2.460109   8.233857 O.2        1 UNL1     -0.2917
     26 O         -5.849022   -3.39634   5.70574 O.3        1 UNL1     -0.5058
     27 O         -0.235928   -0.203846   2.54022 O.3        1 UNL1     -0.3648
     28 O         0.257722   -1.952054   -0.577834 O.3        1 UNL1     -0.3841
     29 O         -2.457642   0.367647   -0.266973 O.3        1 UNL1     -0.3863
     30 O         -2.462008   -3.306388   -0.227431 O.3        1 UNL1     -0.3829
     31 H         0.611427   -1.855912   1.811759 H        1 UNL1     0.0937
     32 H         0.0   0.0   0.0 H        1 UNL1     0.0671
     33 H         -1.869223   -1.182325   -1.422434 H        1 UNL1     0.0649
     34 H         -3.851282   -1.820168   0.04276 H        1 UNL1     0.0683
     35 H         -3.217783   -2.936195   2.132595 H        1 UNL1     0.1085
     36 H         -4.857206   -2.953584   3.397586 H        1 UNL1     0.0691
     37 H         -2.794789   0.677083   4.490696 H        1 UNL1     0.0691
     38 H         -3.39727   -1.048752   9.010777 H        1 UNL1     0.0385
     39 H         -4.962024   -0.631576   9.736072 H        1 UNL1     0.0385
     40 H         -3.711944   1.363147   8.826277 H        1 UNL1     0.0789
     41 H         -5.357235   1.958554   5.934291 H        1 UNL1     0.0623
     42 H         -7.481006   3.183226   5.706361 H        1 UNL1     0.0654
     43 H         -8.439663   2.306201   9.800404 H        1 UNL1     0.0654
     44 H         -6.367901   1.059745   10.045562 H        1 UNL1     0.0623
     45 H         -8.990724   4.464558   7.344881 H        1 UNL1     0.2921
     46 H         -5.456425   -3.917821   6.42361 H        1 UNL1     0.2922
     47 H         0.50884   0.349039   2.26545 H        1 UNL1     0.2126
     48 H         1.193437   -1.880045   -0.30768 H        1 UNL1     0.2101
     49 H         -2.018971   0.949003   -0.908367 H        1 UNL1     0.2100
     50 H         -2.697562   -3.316211   -1.178289 H        1 UNL1     0.2102
@<TRIPOS>BOND
     1     1     2    1
     2     1     6    1
     3     2     3    1
     4     3     4    1
     5     3    29    1
     6     3    33    1
     7     4     5    1
     8     5     6    1
     9     5     7    1
    10     5    35    1
    11     7     8    1
    12     8     9   ar
    13     8    13   ar
    14     9    10   ar
    15     9    36    1
    16    10    11   ar
    17    10    26    1
    18    11    12   ar
    19    11    14    1
    20    12    13   ar
    21    12    17    1
    22    13    37    1
    23    14    15    1
    24    14    25    2
    25    15    16    1
    26    15    38    1
    27    15    39    1
    28    16    17    1
    29    16    18    1
    30    16    40    1
    31    18    19   ar
    32    18    23   ar
    33    19    20   ar
    34    19    41    1
    35    20    21   ar
    36    20    42    1
    37    21    22   ar
    38    21    24    1
    39    22    23   ar
    40    22    43    1
    41    23    44    1
    42    24    45    1
    43    26    46    1
    44    27    47    1
    45    28    48    1
    46    29    49    1
    47    30    50    1
    48     1    31    1
    49     1    27    1
    50     2    32    1
    51     2    28    1
    52     4    34    1
    53     4    30    1
