@<TRIPOS>MOLECULE
*****
 50 53 0 0 0
SMALL
GASTEIGER

@<TRIPOS>ATOM
     1 C         1.792996   -0.026497   1.247103 C.3        1 UNL1     0.1889
     2 C         1.012722   -0.420321   -0.035868 C.3        1 UNL1     0.1342
     3 C         0.918907   -1.932542   -0.290526 C.3        1 UNL1     0.1174
     4 C         2.17348   -2.688288   0.154458 C.3        1 UNL1     0.1456
     5 C         2.648291   -2.269255   1.557786 C.3        1 UNL1     0.2326
     6 O         2.887062   -0.863987   1.590652 O.3        1 UNL1     -0.3076
     7 O         1.782019   -2.720902   2.614625 O.3        1 UNL1     -0.4605
     8 C         1.084015   -1.735373   3.289199 C.ar        1 UNL1     0.1310
     9 C         -0.209132   -1.867865   3.806419 C.ar        1 UNL1     0.0226
     10 C         -0.826203   -0.814191   4.49118 C.ar        1 UNL1     0.1343
     11 C         -0.155263   0.390643   4.696251 C.ar        1 UNL1     0.1007
     12 C         1.120677   0.549138   4.148857 C.ar        1 UNL1     0.1389
     13 C         1.739893   -0.509558   3.458086 C.ar        1 UNL1     0.0229
     14 C         -0.727056   1.506762   5.484595 C.2        1 UNL1     0.1740
     15 C         0.214703   2.633752   5.792056 C.3        1 UNL1     0.0520
     16 C         1.065561   2.900857   4.558098 C.3        1 UNL1     0.1322
     17 O         1.827945   1.727993   4.197225 O.3        1 UNL1     -0.4828
     18 C         0.290285   3.534478   3.400429 C.ar        1 UNL1     -0.0067
     19 C         0.56196   4.868409   3.032955 C.ar        1 UNL1     -0.0516
     20 C         -0.161585   5.493335   2.010257 C.ar        1 UNL1     -0.0198
     21 C         -1.162033   4.799031   1.353847 C.ar        1 UNL1     0.1169
     22 C         -1.430213   3.473626   1.670419 C.ar        1 UNL1     -0.0198
     23 C         -0.694325   2.842603   2.680536 C.ar        1 UNL1     -0.0516
     24 O         -1.871019   5.452468   0.389088 O.3        1 UNL1     -0.5068
     25 O         -1.868564   1.499164   5.937792 O.2        1 UNL1     -0.2917
     26 O         -2.089153   -1.007447   4.969923 O.3        1 UNL1     -0.5058
     27 O         0.9548   0.224646   2.363858 O.3        1 UNL1     -0.3648
     28 O         1.676811   0.164909   -1.171296 O.3        1 UNL1     -0.3841
     29 O         -0.27946   -2.468438   0.274156 O.3        1 UNL1     -0.3863
     30 O         3.237326   -2.437583   -0.789506 O.3        1 UNL1     -0.3829
     31 H         2.265293   0.940345   1.041598 H        1 UNL1     0.0937
     32 H         -0.0   0.0   0.0 H        1 UNL1     0.0671
     33 H         0.824012   -2.084772   -1.37475 H        1 UNL1     0.0649
     34 H         1.983469   -3.767265   0.144155 H        1 UNL1     0.0683
     35 H         3.623253   -2.761029   1.66496 H        1 UNL1     0.1085
     36 H         -0.761761   -2.797765   3.728915 H        1 UNL1     0.0691
     37 H         2.733319   -0.360401   3.040532 H        1 UNL1     0.0691
     38 H         0.834999   2.324958   6.640233 H        1 UNL1     0.0385
     39 H         -0.364334   3.51314   6.094005 H        1 UNL1     0.0385
     40 H         1.822969   3.644054   4.841841 H        1 UNL1     0.0789
     41 H         1.336056   5.437821   3.539113 H        1 UNL1     0.0623
     42 H         0.049251   6.526176   1.744177 H        1 UNL1     0.0654
     43 H         -2.201288   2.915863   1.152488 H        1 UNL1     0.0654
     44 H         -0.923374   1.803084   2.894501 H        1 UNL1     0.0623
     45 H         -2.372548   6.169565   0.809751 H        1 UNL1     0.2921
     46 H         -2.126587   -0.73898   5.901554 H        1 UNL1     0.2922
     47 H         1.48553   0.490243   3.127824 H        1 UNL1     0.2126
     48 H         1.119214   0.909672   -1.468191 H        1 UNL1     0.2101
     49 H         -0.354641   -2.200647   1.203903 H        1 UNL1     0.2100
     50 H         2.833892   -2.099028   -1.615541 H        1 UNL1     0.2102
@<TRIPOS>BOND
     1     1     2    1
     2     1     6    1
     3     2     3    1
     4     3     4    1
     5     3    29    1
     6     3    33    1
     7     4     5    1
     8     5     6    1
     9     5     7    1
    10     5    35    1
    11     7     8    1
    12     8     9   ar
    13     8    13   ar
    14     9    10   ar
    15     9    36    1
    16    10    11   ar
    17    10    26    1
    18    11    12   ar
    19    11    14    1
    20    12    13   ar
    21    12    17    1
    22    13    37    1
    23    14    15    1
    24    14    25    2
    25    15    16    1
    26    15    38    1
    27    15    39    1
    28    16    17    1
    29    16    18    1
    30    16    40    1
    31    18    19   ar
    32    18    23   ar
    33    19    20   ar
    34    19    41    1
    35    20    21   ar
    36    20    42    1
    37    21    22   ar
    38    21    24    1
    39    22    23   ar
    40    22    43    1
    41    23    44    1
    42    24    45    1
    43    26    46    1
    44    27    47    1
    45    28    48    1
    46    29    49    1
    47    30    50    1
    48     1    31    1
    49     1    27    1
    50     2    32    1
    51     2    28    1
    52     4    34    1
    53     4    30    1
