@<TRIPOS>MOLECULE
*****
 50 53 0 0 0
SMALL
GASTEIGER

@<TRIPOS>ATOM
     1 C         -0.163897   0.913503   1.977234 C.3        1 UNL1     0.1889
     2 C         0.352825   -0.194409   1.020432 C.3        1 UNL1     0.1342
     3 C         -0.040665   -1.623982   1.422863 C.3        1 UNL1     0.1174
     4 C         -0.082171   -1.823321   2.939985 C.3        1 UNL1     0.1456
     5 C         -0.830349   -0.689157   3.664047 C.3        1 UNL1     0.2326
     6 O         -0.229703   0.56583   3.352439 O.3        1 UNL1     -0.3076
     7 O         -2.252127   -0.706825   3.441437 O.3        1 UNL1     -0.4605
     8 C         -3.034416   -0.237532   4.481301 C.ar        1 UNL1     0.1310
     9 C         -2.877124   -0.574963   5.829893 C.ar        1 UNL1     0.0226
     10 C         -3.711858   -0.03199   6.813916 C.ar        1 UNL1     0.1343
     11 C         -4.709887   0.880896   6.475659 C.ar        1 UNL1     0.1007
     12 C         -4.903154   1.194075   5.127568 C.ar        1 UNL1     0.1389
     13 C         -4.065409   0.64595   4.138036 C.ar        1 UNL1     0.0229
     14 C         -5.5653   1.549087   7.4836 C.2        1 UNL1     0.1740
     15 C         -6.429005   2.662034   6.966966 C.3        1 UNL1     0.0520
     16 C         -6.989814   2.248065   5.613423 C.3        1 UNL1     0.1322
     17 O         -5.923476   1.996269   4.671833 O.3        1 UNL1     -0.4828
     18 C         -8.039504   1.137113   5.695037 C.ar        1 UNL1     -0.0067
     19 C         -7.932638   0.019351   4.842159 C.ar        1 UNL1     -0.0516
     20 C         -8.901216   -0.991377   4.85786 C.ar        1 UNL1     -0.0198
     21 C         -9.98284   -0.892636   5.714696 C.ar        1 UNL1     0.1169
     22 C         -10.09821   0.179353   6.59012 C.ar        1 UNL1     -0.0198
     23 C         -9.120105   1.181031   6.587655 C.ar        1 UNL1     -0.0516
     24 O         -10.925852   -1.877302   5.675179 O.3        1 UNL1     -0.5068
     25 O         -5.530439   1.284204   8.682394 O.2        1 UNL1     -0.2917
     26 O         -3.506661   -0.402848   8.110813 O.3        1 UNL1     -0.5058
     27 O         -1.36326   1.528599   1.534548 O.3        1 UNL1     -0.3648
     28 O         1.791123   -0.137976   0.9918 O.3        1 UNL1     -0.3841
     29 O         -1.255234   -2.015635   0.779774 O.3        1 UNL1     -0.3863
     30 O         1.268759   -1.885652   3.446734 O.3        1 UNL1     -0.3829
     31 H         0.577679   1.719425   1.952073 H        1 UNL1     0.0937
     32 H         0.0   0.0   0.0 H        1 UNL1     0.0671
     33 H         0.72849   -2.305644   1.033689 H        1 UNL1     0.0649
     34 H         -0.558482   -2.780736   3.178494 H        1 UNL1     0.0683
     35 H         -0.636229   -0.880534   4.72686 H        1 UNL1     0.1085
     36 H         -2.084413   -1.235492   6.163707 H        1 UNL1     0.0691
     37 H         -4.237335   0.904884   3.095497 H        1 UNL1     0.0691
     38 H         -5.800774   3.554738   6.877898 H        1 UNL1     0.0385
     39 H         -7.219179   2.871216   7.696107 H        1 UNL1     0.0385
     40 H         -7.519148   3.118372   5.202459 H        1 UNL1     0.0789
     41 H         -7.097932   -0.077001   4.153949 H        1 UNL1     0.0623
     42 H         -8.813861   -1.842412   4.186949 H        1 UNL1     0.0654
     43 H         -10.933276   0.259055   7.275849 H        1 UNL1     0.0654
     44 H         -9.236501   1.998779   7.292342 H        1 UNL1     0.0623
     45 H         -11.307021   -1.901264   4.782513 H        1 UNL1     0.2921
     46 H         -3.364835   0.387921   8.654855 H        1 UNL1     0.2922
     47 H         -1.246999   1.885997   0.643139 H        1 UNL1     0.2126
     48 H         2.029605   0.743456   0.645484 H        1 UNL1     0.2101
     49 H         -1.103518   -2.127016   -0.172261 H        1 UNL1     0.2100
     50 H         1.689485   -2.693063   3.085086 H        1 UNL1     0.2102
@<TRIPOS>BOND
     1     1     2    1
     2     1     6    1
     3     2     3    1
     4     3     4    1
     5     3    29    1
     6     3    33    1
     7     4     5    1
     8     5     6    1
     9     5     7    1
    10     5    35    1
    11     7     8    1
    12     8     9   ar
    13     8    13   ar
    14     9    10   ar
    15     9    36    1
    16    10    11   ar
    17    10    26    1
    18    11    12   ar
    19    11    14    1
    20    12    13   ar
    21    12    17    1
    22    13    37    1
    23    14    15    1
    24    14    25    2
    25    15    16    1
    26    15    38    1
    27    15    39    1
    28    16    17    1
    29    16    18    1
    30    16    40    1
    31    18    19   ar
    32    18    23   ar
    33    19    20   ar
    34    19    41    1
    35    20    21   ar
    36    20    42    1
    37    21    22   ar
    38    21    24    1
    39    22    23   ar
    40    22    43    1
    41    23    44    1
    42    24    45    1
    43    26    46    1
    44    27    47    1
    45    28    48    1
    46    29    49    1
    47    30    50    1
    48     1    31    1
    49     1    27    1
    50     2    32    1
    51     2    28    1
    52     4    34    1
    53     4    30    1
