@<TRIPOS>MOLECULE
*****
 50 53 0 0 0
SMALL
GASTEIGER

@<TRIPOS>ATOM
     1 C         -0.352075   -1.340636   1.688059 C.3        1 UNL1     0.1889
     2 C         -0.470468   -0.973787   0.184282 C.3        1 UNL1     0.1342
     3 C         -1.907747   -0.946534   -0.357891 C.3        1 UNL1     0.1174
     4 C         -2.805591   -2.005225   0.287219 C.3        1 UNL1     0.1456
     5 C         -2.663939   -2.044874   1.819774 C.3        1 UNL1     0.2326
     6 O         -1.302855   -2.275532   2.176303 O.3        1 UNL1     -0.3076
     7 O         -3.235023   -0.899505   2.47804 O.3        1 UNL1     -0.4605
     8 C         -3.764717   -1.124792   3.735895 C.ar        1 UNL1     0.1310
     9 C         -4.598099   -2.19299   4.084791 C.ar        1 UNL1     0.0226
     10 C         -5.070899   -2.344472   5.393767 C.ar        1 UNL1     0.1343
     11 C         -4.702091   -1.443771   6.392045 C.ar        1 UNL1     0.1007
     12 C         -3.903671   -0.350125   6.046723 C.ar        1 UNL1     0.1389
     13 C         -3.430557   -0.196566   4.729903 C.ar        1 UNL1     0.0229
     14 C         -5.104149   -1.602836   7.808802 C.2        1 UNL1     0.1740
     15 C         -4.437996   -0.674028   8.780967 C.3        1 UNL1     0.0520
     16 C         -4.344286   0.70507   8.142795 C.3        1 UNL1     0.1322
     17 O         -3.56936   0.654792   6.924587 O.3        1 UNL1     -0.4828
     18 C         -5.693857   1.414315   8.007319 C.ar        1 UNL1     -0.0067
     19 C         -6.041857   2.011956   6.778525 C.ar        1 UNL1     -0.0516
     20 C         -7.247368   2.709115   6.634737 C.ar        1 UNL1     -0.0198
     21 C         -8.108104   2.82178   7.711894 C.ar        1 UNL1     0.1169
     22 C         -7.80867   2.215619   8.925049 C.ar        1 UNL1     -0.0198
     23 C         -6.611761   1.502716   9.063743 C.ar        1 UNL1     -0.0516
     24 O         -9.255341   3.540436   7.545216 O.3        1 UNL1     -0.5068
     25 O         -5.868389   -2.481024   8.20022 O.2        1 UNL1     -0.2917
     26 O         -5.881149   -3.407335   5.66836 O.3        1 UNL1     -0.5058
     27 O         -0.244206   -0.210491   2.538895 O.3        1 UNL1     -0.3648
     28 O         0.258079   -1.950692   -0.582257 O.3        1 UNL1     -0.3841
     29 O         -2.456495   0.370259   -0.273837 O.3        1 UNL1     -0.3863
     30 O         -2.46379   -3.303864   -0.244193 O.3        1 UNL1     -0.3829
     31 H         0.604214   -1.861247   1.808705 H        1 UNL1     0.0937
     32 H         0.0   0.0   0.0 H        1 UNL1     0.0671
     33 H         -1.865566   -1.177055   -1.431577 H        1 UNL1     0.0649
     34 H         -3.852787   -1.817304   0.025553 H        1 UNL1     0.0683
     35 H         -3.226827   -2.939433   2.114393 H        1 UNL1     0.1085
     36 H         -4.875367   -2.957746   3.367581 H        1 UNL1     0.0691
     37 H         -2.811323   0.664126   4.486489 H        1 UNL1     0.0691
     38 H         -3.44303   -1.078002   8.996318 H        1 UNL1     0.0385
     39 H         -5.010948   -0.660247   9.714409 H        1 UNL1     0.0385
     40 H         -3.751452   1.335279   8.819482 H        1 UNL1     0.0789
     41 H         -5.379104   1.945543   5.920621 H        1 UNL1     0.0623
     42 H         -7.498908   3.175721   5.685517 H        1 UNL1     0.0654
     43 H         -8.482548   2.284832   9.770631 H        1 UNL1     0.0654
     44 H         -6.414897   1.032916   10.022584 H        1 UNL1     0.0623
     45 H         -9.015081   4.453943   7.320502 H        1 UNL1     0.2921
     46 H         -5.493736   -3.932465   6.386386 H        1 UNL1     0.2922
     47 H         0.491659   0.351122   2.25791 H        1 UNL1     0.2126
     48 H         1.196371   -1.8646   -0.325492 H        1 UNL1     0.2101
     49 H         -2.015331   0.952999   -0.912259 H        1 UNL1     0.2100
     50 H         -2.69631   -3.31095   -1.195822 H        1 UNL1     0.2102
@<TRIPOS>BOND
     1     1     2    1
     2     1     6    1
     3     2     3    1
     4     3     4    1
     5     3    29    1
     6     3    33    1
     7     4     5    1
     8     5     6    1
     9     5     7    1
    10     5    35    1
    11     7     8    1
    12     8     9   ar
    13     8    13   ar
    14     9    10   ar
    15     9    36    1
    16    10    11   ar
    17    10    26    1
    18    11    12   ar
    19    11    14    1
    20    12    13   ar
    21    12    17    1
    22    13    37    1
    23    14    15    1
    24    14    25    2
    25    15    16    1
    26    15    38    1
    27    15    39    1
    28    16    17    1
    29    16    18    1
    30    16    40    1
    31    18    19   ar
    32    18    23   ar
    33    19    20   ar
    34    19    41    1
    35    20    21   ar
    36    20    42    1
    37    21    22   ar
    38    21    24    1
    39    22    23   ar
    40    22    43    1
    41    23    44    1
    42    24    45    1
    43    26    46    1
    44    27    47    1
    45    28    48    1
    46    29    49    1
    47    30    50    1
    48     1    31    1
    49     1    27    1
    50     2    32    1
    51     2    28    1
    52     4    34    1
    53     4    30    1
