@<TRIPOS>MOLECULE
*****
 50 53 0 0 0
SMALL
GASTEIGER

@<TRIPOS>ATOM
     1 C         -0.243431   -2.071184   0.649418 C.3        1 UNL1     0.1889
     2 C         -0.202172   -0.978656   -0.452681 C.3        1 UNL1     0.1342
     3 C         -1.474977   -0.881952   -1.307714 C.3        1 UNL1     0.1174
     4 C         -2.135443   -2.242347   -1.54484 C.3        1 UNL1     0.1456
     5 C         -2.251557   -3.074919   -0.254993 C.3        1 UNL1     0.2326
     6 O         -0.961953   -3.252657   0.326556 O.3        1 UNL1     -0.3076
     7 O         -3.224837   -2.561825   0.67279 O.3        1 UNL1     -0.4605
     8 C         -2.925137   -2.718362   2.014134 C.ar        1 UNL1     0.1310
     9 C         -3.855221   -2.70534   3.059157 C.ar        1 UNL1     0.0226
     10 C         -3.453882   -2.890158   4.387566 C.ar        1 UNL1     0.1343
     11 C         -2.114354   -3.116456   4.701085 C.ar        1 UNL1     0.1007
     12 C         -1.170959   -3.090782   3.670488 C.ar        1 UNL1     0.1389
     13 C         -1.57442   -2.902294   2.335151 C.ar        1 UNL1     0.0229
     14 C         -1.646366   -3.400995   6.077376 C.2        1 UNL1     0.1740
     15 C         -0.216546   -3.839507   6.199325 C.3        1 UNL1     0.0520
     16 C         0.625626   -3.008608   5.241038 C.3        1 UNL1     0.1322
     17 O         0.184955   -3.194557   3.877843 O.3        1 UNL1     -0.4828
     18 C         0.778024   -1.545671   5.664491 C.ar        1 UNL1     -0.0067
     19 C         1.511546   -1.234225   6.827746 C.ar        1 UNL1     -0.0516
     20 C         1.630409   0.089003   7.269224 C.ar        1 UNL1     -0.0198
     21 C         1.01565   1.106674   6.561945 C.ar        1 UNL1     0.1169
     22 C         0.314563   0.835273   5.394188 C.ar        1 UNL1     -0.0198
     23 C         0.211034   -0.485771   4.942322 C.ar        1 UNL1     -0.0516
     24 O         1.121568   2.378541   7.043127 O.3        1 UNL1     -0.5068
     25 O         -2.380122   -3.366458   7.061701 O.2        1 UNL1     -0.2917
     26 O         -4.410436   -2.86529   5.360177 O.3        1 UNL1     -0.5058
     27 O         -0.60397   -1.571684   1.927424 O.3        1 UNL1     -0.3648
     28 O         0.890946   -1.27007   -1.343117 O.3        1 UNL1     -0.3841
     29 O         -2.377513   0.084531   -0.765985 O.3        1 UNL1     -0.3863
     30 O         -1.357267   -2.985262   -2.508275 O.3        1 UNL1     -0.3829
     31 H         0.785483   -2.424423   0.778405 H        1 UNL1     0.0937
     32 H         0.0   0.0   0.0 H        1 UNL1     0.0671
     33 H         -1.187493   -0.491994   -2.294125 H        1 UNL1     0.0649
     34 H         -3.132733   -2.103682   -1.976795 H        1 UNL1     0.0683
     35 H         -2.58207   -4.060763   -0.605353 H        1 UNL1     0.1085
     36 H         -4.917791   -2.59002   2.875398 H        1 UNL1     0.0691
     37 H         -0.820276   -2.885391   1.551267 H        1 UNL1     0.0691
     38 H         -0.173332   -4.903299   5.94241 H        1 UNL1     0.0385
     39 H         0.106358   -3.725511   7.239765 H        1 UNL1     0.0385
     40 H         1.642277   -3.424037   5.260015 H        1 UNL1     0.0789
     41 H         1.995766   -2.01607   7.405586 H        1 UNL1     0.0623
     42 H         2.188747   0.315024   8.174312 H        1 UNL1     0.0654
     43 H         -0.158085   1.626355   4.82436 H        1 UNL1     0.0654
     44 H         -0.335307   -0.660169   4.020399 H        1 UNL1     0.0623
     45 H         2.05731   2.636857   7.023718 H        1 UNL1     0.2921
     46 H         -4.582133   -3.76918   5.668261 H        1 UNL1     0.2922
     47 H         -1.210361   -2.183796   2.367274 H        1 UNL1     0.2126
     48 H         0.784011   -2.199764   -1.622343 H        1 UNL1     0.2101
     49 H         -1.880264   0.841844   -0.418113 H        1 UNL1     0.2100
     50 H         -1.431745   -2.529182   -3.372079 H        1 UNL1     0.2102
@<TRIPOS>BOND
     1     1     2    1
     2     1     6    1
     3     2     3    1
     4     3     4    1
     5     3    29    1
     6     3    33    1
     7     4     5    1
     8     5     6    1
     9     5     7    1
    10     5    35    1
    11     7     8    1
    12     8     9   ar
    13     8    13   ar
    14     9    10   ar
    15     9    36    1
    16    10    11   ar
    17    10    26    1
    18    11    12   ar
    19    11    14    1
    20    12    13   ar
    21    12    17    1
    22    13    37    1
    23    14    15    1
    24    14    25    2
    25    15    16    1
    26    15    38    1
    27    15    39    1
    28    16    17    1
    29    16    18    1
    30    16    40    1
    31    18    19   ar
    32    18    23   ar
    33    19    20   ar
    34    19    41    1
    35    20    21   ar
    36    20    42    1
    37    21    22   ar
    38    21    24    1
    39    22    23   ar
    40    22    43    1
    41    23    44    1
    42    24    45    1
    43    26    46    1
    44    27    47    1
    45    28    48    1
    46    29    49    1
    47    30    50    1
    48     1    31    1
    49     1    27    1
    50     2    32    1
    51     2    28    1
    52     4    34    1
    53     4    30    1
