@<TRIPOS>MOLECULE
*****
 50 53 0 0 0
SMALL
GASTEIGER

@<TRIPOS>ATOM
     1 C         -0.334895   -1.329339   1.700443 C.3        1 UNL1     0.1889
     2 C         -0.464077   -0.974848   0.194592 C.3        1 UNL1     0.1342
     3 C         -1.904629   -0.95957   -0.339299 C.3        1 UNL1     0.1174
     4 C         -2.792911   -2.018038   0.319275 C.3        1 UNL1     0.1456
     5 C         -2.642084   -2.044994   1.851231 C.3        1 UNL1     0.2326
     6 O         -1.277702   -2.265523   2.201512 O.3        1 UNL1     -0.3076
     7 O         -3.215531   -0.897635   2.503953 O.3        1 UNL1     -0.4605
     8 C         -3.726012   -1.113391   3.771386 C.ar        1 UNL1     0.1310
     9 C         -4.544051   -2.185493   4.143826 C.ar        1 UNL1     0.0226
     10 C         -4.997687   -2.326304   5.46075 C.ar        1 UNL1     0.1343
     11 C         -4.624388   -1.410504   6.4435 C.ar        1 UNL1     0.1007
     12 C         -3.841508   -0.313255   6.074815 C.ar        1 UNL1     0.1389
     13 C         -3.387685   -0.170454   4.750019 C.ar        1 UNL1     0.0229
     14 C         -5.005767   -1.556956   7.867318 C.2        1 UNL1     0.1740
     15 C         -4.335792   -0.61047   8.819602 C.3        1 UNL1     0.0520
     16 C         -4.264279   0.761949   8.164384 C.3        1 UNL1     0.1322
     17 O         -3.505349   0.705013   6.936438 O.3        1 UNL1     -0.4828
     18 C         -5.622479   1.456436   8.039068 C.ar        1 UNL1     -0.0067
     19 C         -6.000323   2.020822   6.803383 C.ar        1 UNL1     -0.0516
     20 C         -7.214558   2.704218   6.667131 C.ar        1 UNL1     -0.0198
     21 C         -8.054448   2.836151   7.758464 C.ar        1 UNL1     0.1169
     22 C         -7.725398   2.26246   8.979711 C.ar        1 UNL1     -0.0198
     23 C         -6.519727   1.56313   9.111429 C.ar        1 UNL1     -0.0516
     24 O         -9.211072   3.540957   7.597627 O.3        1 UNL1     -0.5068
     25 O         -5.755975   -2.437904   8.279147 O.2        1 UNL1     -0.2917
     26 O         -5.793649   -3.393712   5.758524 O.3        1 UNL1     -0.5058
     27 O         -0.228202   -0.192041   2.541845 O.3        1 UNL1     -0.3648
     28 O         0.265279   -1.953743   -0.568631 O.3        1 UNL1     -0.3841
     29 O         -2.460033   0.354857   -0.262222 O.3        1 UNL1     -0.3863
     30 O         -2.447162   -3.31891   -0.20406 O.3        1 UNL1     -0.3829
     31 H         0.624902   -1.843827   1.819485 H        1 UNL1     0.0937
     32 H         0.0   0.0   0.0 H        1 UNL1     0.0671
     33 H         -1.867475   -1.198209   -1.411396 H        1 UNL1     0.0649
     34 H         -3.842626   -1.837812   0.062335 H        1 UNL1     0.0683
     35 H         -3.198362   -2.940257   2.156085 H        1 UNL1     0.1085
     36 H         -4.823384   -2.961203   3.439294 H        1 UNL1     0.0691
     37 H         -2.780299   0.693316   4.488337 H        1 UNL1     0.0691
     38 H         -3.334084   -1.002232   9.026075 H        1 UNL1     0.0385
     39 H         -4.896247   -0.591382   9.760508 H        1 UNL1     0.0385
     40 H         -3.668642   1.405719   8.825669 H        1 UNL1     0.0789
     41 H         -5.354373   1.938866   5.934083 H        1 UNL1     0.0623
     42 H         -7.4892   3.145277   5.712118 H        1 UNL1     0.0654
     43 H         -8.382743   2.34682   9.836852 H        1 UNL1     0.0654
     44 H         -6.299527   1.11866   10.077246 H        1 UNL1     0.0623
     45 H         -8.983662   4.4482   7.337029 H        1 UNL1     0.2921
     46 H         -5.390247   -3.908022   6.475578 H        1 UNL1     0.2922
     47 H         0.515888   0.360687   2.264931 H        1 UNL1     0.2126
     48 H         1.198044   -1.890128   -0.286434 H        1 UNL1     0.2101
     49 H         -2.019881   0.937129   -0.901768 H        1 UNL1     0.2100
     50 H         -2.67998   -3.332736   -1.155541 H        1 UNL1     0.2102
@<TRIPOS>BOND
     1     1     2    1
     2     1     6    1
     3     2     3    1
     4     3     4    1
     5     3    29    1
     6     3    33    1
     7     4     5    1
     8     5     6    1
     9     5     7    1
    10     5    35    1
    11     7     8    1
    12     8     9   ar
    13     8    13   ar
    14     9    10   ar
    15     9    36    1
    16    10    11   ar
    17    10    26    1
    18    11    12   ar
    19    11    14    1
    20    12    13   ar
    21    12    17    1
    22    13    37    1
    23    14    15    1
    24    14    25    2
    25    15    16    1
    26    15    38    1
    27    15    39    1
    28    16    17    1
    29    16    18    1
    30    16    40    1
    31    18    19   ar
    32    18    23   ar
    33    19    20   ar
    34    19    41    1
    35    20    21   ar
    36    20    42    1
    37    21    22   ar
    38    21    24    1
    39    22    23   ar
    40    22    43    1
    41    23    44    1
    42    24    45    1
    43    26    46    1
    44    27    47    1
    45    28    48    1
    46    29    49    1
    47    30    50    1
    48     1    31    1
    49     1    27    1
    50     2    32    1
    51     2    28    1
    52     4    34    1
    53     4    30    1
