@<TRIPOS>MOLECULE
*****
 50 53 0 0 0
SMALL
GASTEIGER

@<TRIPOS>ATOM
     1 C         -0.333778   -1.328818   1.70107 C.3        1 UNL1     0.1889
     2 C         -0.463485   -0.975028   0.195099 C.3        1 UNL1     0.1342
     3 C         -1.904161   -0.960786   -0.338488 C.3        1 UNL1     0.1174
     4 C         -2.791703   -2.01948   0.32072 C.3        1 UNL1     0.1456
     5 C         -2.64053   -2.045711   1.852654 C.3        1 UNL1     0.2326
     6 O         -1.275948   -2.265325   2.202733 O.3        1 UNL1     -0.3076
     7 O         -3.214484   -0.898404   2.505021 O.3        1 UNL1     -0.4605
     8 C         -3.72457   -1.113919   3.772654 C.ar        1 UNL1     0.1310
     9 C         -4.541923   -2.186327   4.145719 C.ar        1 UNL1     0.0226
     10 C         -4.995195   -2.326845   5.462799 C.ar        1 UNL1     0.1343
     11 C         -4.622201   -1.410424   6.445087 C.ar        1 UNL1     0.1007
     12 C         -3.840021   -0.312887   6.075774 C.ar        1 UNL1     0.1389
     13 C         -3.386563   -0.170384   4.750821 C.ar        1 UNL1     0.0229
     14 C         -5.00319   -1.556497   7.869047 C.2        1 UNL1     0.1740
     15 C         -4.333544   -0.609235   8.820792 C.3        1 UNL1     0.0520
     16 C         -4.262947   0.76295   8.164986 C.3        1 UNL1     0.1322
     17 O         -3.50425   0.70593   6.9369 O.3        1 UNL1     -0.4828
     18 C         -5.621566   1.456618   8.039673 C.ar        1 UNL1     -0.0067
     19 C         -5.999995   2.020275   6.803835 C.ar        1 UNL1     -0.0516
     20 C         -7.214645   2.702928   6.66756 C.ar        1 UNL1     -0.0198
     21 C         -8.054374   2.834843   7.759019 C.ar        1 UNL1     0.1169
     22 C         -7.724737   2.261848   8.980434 C.ar        1 UNL1     -0.0198
     23 C         -6.518643   1.563253   9.112183 C.ar        1 UNL1     -0.0516
     24 O         -9.21143   3.53893   7.598138 O.3        1 UNL1     -0.5068
     25 O         -5.752812   -2.437696   8.281406 O.2        1 UNL1     -0.2917
     26 O         -5.79049   -3.394578   5.761191 O.3        1 UNL1     -0.5058
     27 O         -0.227546   -0.191109   2.541974 O.3        1 UNL1     -0.3648
     28 O         0.266259   -1.95383   -0.567873 O.3        1 UNL1     -0.3841
     29 O         -2.460289   0.353359   -0.261838 O.3        1 UNL1     -0.3863
     30 O         -2.445333   -3.320375   -0.202147 O.3        1 UNL1     -0.3829
     31 H         0.626334   -1.842715   1.820119 H        1 UNL1     0.0937
     32 H         0.0   0.0   0.0 H        1 UNL1     0.0671
     33 H         -1.867103   -1.199852   -1.410493 H        1 UNL1     0.0649
     34 H         -3.841575   -1.839954   0.063931 H        1 UNL1     0.0683
     35 H         -3.196237   -2.941162   2.158002 H        1 UNL1     0.1085
     36 H         -4.82097   -2.962489   3.44157 H        1 UNL1     0.0691
     37 H         -2.779722   0.69362   4.488648 H        1 UNL1     0.0691
     38 H         -3.331571   -1.000346   9.027212 H        1 UNL1     0.0385
     39 H         -4.893807   -0.590071   9.761811 H        1 UNL1     0.0385
     40 H         -3.667531   1.407331   8.825874 H        1 UNL1     0.0789
     41 H         -5.354186   1.938321   5.934429 H        1 UNL1     0.0623
     42 H         -7.489741   3.143434   5.712422 H        1 UNL1     0.0654
     43 H         -8.381944   2.346195   9.837682 H        1 UNL1     0.0654
     44 H         -6.297983   1.119311   10.078139 H        1 UNL1     0.0623
     45 H         -8.984567   4.446382   7.337792 H        1 UNL1     0.2921
     46 H         -5.387161   -3.907777   6.479079 H        1 UNL1     0.2922
     47 H         0.516067   0.362012   2.264562 H        1 UNL1     0.2126
     48 H         1.19917   -1.889083   -0.286415 H        1 UNL1     0.2101
     49 H         -2.020664   0.935591   -0.901783 H        1 UNL1     0.2100
     50 H         -2.678348   -3.33473   -1.153572 H        1 UNL1     0.2102
@<TRIPOS>BOND
     1     1     2    1
     2     1     6    1
     3     2     3    1
     4     3     4    1
     5     3    29    1
     6     3    33    1
     7     4     5    1
     8     5     6    1
     9     5     7    1
    10     5    35    1
    11     7     8    1
    12     8     9   ar
    13     8    13   ar
    14     9    10   ar
    15     9    36    1
    16    10    11   ar
    17    10    26    1
    18    11    12   ar
    19    11    14    1
    20    12    13   ar
    21    12    17    1
    22    13    37    1
    23    14    15    1
    24    14    25    2
    25    15    16    1
    26    15    38    1
    27    15    39    1
    28    16    17    1
    29    16    18    1
    30    16    40    1
    31    18    19   ar
    32    18    23   ar
    33    19    20   ar
    34    19    41    1
    35    20    21   ar
    36    20    42    1
    37    21    22   ar
    38    21    24    1
    39    22    23   ar
    40    22    43    1
    41    23    44    1
    42    24    45    1
    43    26    46    1
    44    27    47    1
    45    28    48    1
    46    29    49    1
    47    30    50    1
    48     1    31    1
    49     1    27    1
    50     2    32    1
    51     2    28    1
    52     4    34    1
    53     4    30    1
