@<TRIPOS>MOLECULE
*****
 50 53 0 0 0
SMALL
GASTEIGER

@<TRIPOS>ATOM
     1 C         -0.331617   -1.362601   1.674561 C.3        1 UNL1     0.1889
     2 C         -0.463366   -0.978682   0.176165 C.3        1 UNL1     0.1342
     3 C         -1.904783   -0.953561   -0.355016 C.3        1 UNL1     0.1174
     4 C         -2.791572   -2.025139   0.28408 C.3        1 UNL1     0.1456
     5 C         -2.638268   -2.082088   1.814968 C.3        1 UNL1     0.2326
     6 O         -1.273234   -2.308852   2.158669 O.3        1 UNL1     -0.3076
     7 O         -3.211131   -0.948012   2.491 O.3        1 UNL1     -0.4605
     8 C         -3.730102   -1.191325   3.749966 C.ar        1 UNL1     0.1310
     9 C         -4.548929   -2.272316   4.093886 C.ar        1 UNL1     0.0226
     10 C         -5.011529   -2.441661   5.404316 C.ar        1 UNL1     0.1343
     11 C         -4.646646   -1.546297   6.408818 C.ar        1 UNL1     0.1007
     12 C         -3.863045   -0.440298   6.068938 C.ar        1 UNL1     0.1389
     13 C         -3.400207   -0.268797   4.750682 C.ar        1 UNL1     0.0229
     14 C         -5.037728   -1.723435   7.826503 C.2        1 UNL1     0.1740
     15 C         -4.376016   -0.796294   8.803282 C.3        1 UNL1     0.0520
     16 C         -4.30222   0.589792   8.177762 C.3        1 UNL1     0.1322
     17 O         -3.534625   0.560017   6.95425 O.3        1 UNL1     -0.4828
     18 C         -5.660671   1.284703   8.057623 C.ar        1 UNL1     -0.0067
     19 C         -5.784326   2.427048   7.240328 C.ar        1 UNL1     -0.0516
     20 C         -7.000402   3.114155   7.145421 C.ar        1 UNL1     -0.0198
     21 C         -8.095743   2.674263   7.866913 C.ar        1 UNL1     0.1169
     22 C         -8.014213   1.533053   8.654207 C.ar        1 UNL1     -0.0198
     23 C         -6.80328   0.835062   8.734869 C.ar        1 UNL1     -0.0516
     24 O         -9.252966   3.390855   7.778994 O.3        1 UNL1     -0.5068
     25 O         -5.789323   -2.614045   8.214322 O.2        1 UNL1     -0.2917
     26 O         -5.807766   -3.516346   5.673841 O.3        1 UNL1     -0.5058
     27 O         -0.224032   -0.241988   2.537949 O.3        1 UNL1     -0.3648
     28 O         0.265158   -1.942091   -0.60729 O.3        1 UNL1     -0.3841
     29 O         -2.460596   0.358856   -0.251267 O.3        1 UNL1     -0.3863
     30 O         -2.446137   -3.315338   -0.265238 O.3        1 UNL1     -0.3829
     31 H         0.62858   -1.878906   1.781945 H        1 UNL1     0.0937
     32 H         0.0   0.0   0.0 H        1 UNL1     0.0671
     33 H         -1.869257   -1.171098   -1.431647 H        1 UNL1     0.0649
     34 H         -3.841773   -1.840366   0.032408 H        1 UNL1     0.0683
     35 H         -3.193691   -2.983406   2.103084 H        1 UNL1     0.1085
     36 H         -4.822029   -3.033366   3.371155 H        1 UNL1     0.0691
     37 H         -2.792452   0.601244   4.511606 H        1 UNL1     0.0691
     38 H         -3.375122   -1.19081   9.008456 H        1 UNL1     0.0385
     39 H         -4.943069   -0.797981   9.740419 H        1 UNL1     0.0385
     40 H         -3.712301   1.220329   8.856687 H        1 UNL1     0.0789
     41 H         -4.936822   2.797748   6.671146 H        1 UNL1     0.0623
     42 H         -7.079873   4.000659   6.521076 H        1 UNL1     0.0654
     43 H         -8.869922   1.171142   9.211605 H        1 UNL1     0.0654
     44 H         -6.778382   -0.058465   9.351175 H        1 UNL1     0.0623
     45 H         -9.088667   4.282548   8.126278 H        1 UNL1     0.2921
     46 H         -5.421103   -4.031591   6.399394 H        1 UNL1     0.2922
     47 H         0.506414   0.32728   2.258231 H        1 UNL1     0.2126
     48 H         1.209726   -1.82248   -0.389994 H        1 UNL1     0.2101
     49 H         -2.027867   0.951646   -0.886199 H        1 UNL1     0.2100
     50 H         -2.706457   -3.320433   -1.209653 H        1 UNL1     0.2102
@<TRIPOS>BOND
     1     1     2    1
     2     1     6    1
     3     2     3    1
     4     3     4    1
     5     3    29    1
     6     3    33    1
     7     4     5    1
     8     5     6    1
     9     5     7    1
    10     5    35    1
    11     7     8    1
    12     8     9   ar
    13     8    13   ar
    14     9    10   ar
    15     9    36    1
    16    10    11   ar
    17    10    26    1
    18    11    12   ar
    19    11    14    1
    20    12    13   ar
    21    12    17    1
    22    13    37    1
    23    14    15    1
    24    14    25    2
    25    15    16    1
    26    15    38    1
    27    15    39    1
    28    16    17    1
    29    16    18    1
    30    16    40    1
    31    18    19   ar
    32    18    23   ar
    33    19    20   ar
    34    19    41    1
    35    20    21   ar
    36    20    42    1
    37    21    22   ar
    38    21    24    1
    39    22    23   ar
    40    22    43    1
    41    23    44    1
    42    24    45    1
    43    26    46    1
    44    27    47    1
    45    28    48    1
    46    29    49    1
    47    30    50    1
    48     1    31    1
    49     1    27    1
    50     2    32    1
    51     2    28    1
    52     4    34    1
    53     4    30    1
