@<TRIPOS>MOLECULE
*****
 50 53 0 0 0
SMALL
GASTEIGER

@<TRIPOS>ATOM
     1 C         -0.098513   -2.084349   0.645437 C.3        1 UNL1     0.1889
     2 C         0.213214   -0.993325   -0.414013 C.3        1 UNL1     0.1342
     3 C         -0.541623   -1.155139   -1.742358 C.3        1 UNL1     0.1174
     4 C         -0.750951   -2.620747   -2.131319 C.3        1 UNL1     0.1456
     5 C         -1.261739   -3.47581   -0.957298 C.3        1 UNL1     0.2326
     6 O         -0.35546   -3.386133   0.139737 O.3        1 UNL1     -0.3076
     7 O         -2.623966   -3.190781   -0.590668 O.3        1 UNL1     -0.4605
     8 C         -2.832887   -2.822067   0.72612 C.ar        1 UNL1     0.1310
     9 C         -4.049437   -2.915753   1.410611 C.ar        1 UNL1     0.0226
     10 C         -4.156262   -2.531562   2.752583 C.ar        1 UNL1     0.1343
     11 C         -3.042387   -2.06626   3.450164 C.ar        1 UNL1     0.1007
     12 C         -1.831689   -1.929581   2.765829 C.ar        1 UNL1     0.1389
     13 C         -1.725163   -2.313461   1.415748 C.ar        1 UNL1     0.0229
     14 C         -3.079124   -1.725945   4.89134 C.2        1 UNL1     0.1740
     15 C         -1.747682   -1.45814   5.529377 C.3        1 UNL1     0.0520
     16 C         -0.899876   -0.652124   4.554943 C.3        1 UNL1     0.1322
     17 O         -0.700157   -1.381638   3.324093 O.3        1 UNL1     -0.4828
     18 C         -1.379303   0.789298   4.367389 C.ar        1 UNL1     -0.0067
     19 C         -1.640359   1.585422   5.501519 C.ar        1 UNL1     -0.0516
     20 C         -2.125079   2.891805   5.365973 C.ar        1 UNL1     -0.0198
     21 C         -2.359296   3.409887   4.104798 C.ar        1 UNL1     0.1169
     22 C         -2.080212   2.662184   2.968184 C.ar        1 UNL1     -0.0198
     23 C         -1.578027   1.362308   3.103046 C.ar        1 UNL1     -0.0516
     24 O         -2.867351   4.672362   4.012949 O.3        1 UNL1     -0.5068
     25 O         -4.108026   -1.734257   5.561995 O.2        1 UNL1     -0.2917
     26 O         -5.371527   -2.646628   3.36207 O.3        1 UNL1     -0.5058
     27 O         -1.076584   -1.688403   1.5938 O.3        1 UNL1     -0.3648
     28 O         1.620817   -1.036946   -0.713106 O.3        1 UNL1     -0.3841
     29 O         -1.759088   -0.407003   -1.728121 O.3        1 UNL1     -0.3863
     30 O         0.500832   -3.17098   -2.596047 O.3        1 UNL1     -0.3829
     31 H         0.813822   -2.215141   1.237566 H        1 UNL1     0.0937
     32 H         0.0   0.0   0.0 H        1 UNL1     0.0671
     33 H         0.070846   -0.7007   -2.533615 H        1 UNL1     0.0649
     34 H         -1.459904   -2.689141   -2.963851 H        1 UNL1     0.0683
     35 H         -1.204769   -4.504459   -1.334809 H        1 UNL1     0.1085
     36 H         -4.938388   -3.321871   0.940552 H        1 UNL1     0.0691
     37 H         -0.771655   -2.196132   0.905309 H        1 UNL1     0.0691
     38 H         -1.284728   -2.426225   5.748493 H        1 UNL1     0.0385
     39 H         -1.903239   -0.931098   6.476904 H        1 UNL1     0.0385
     40 H         0.104743   -0.56976   4.991378 H        1 UNL1     0.0789
     41 H         -1.473381   1.198653   6.502608 H        1 UNL1     0.0623
     42 H         -2.333772   3.491537   6.248458 H        1 UNL1     0.0654
     43 H         -2.245725   3.063483   1.975473 H        1 UNL1     0.0654
     44 H         -1.361232   0.810463   2.193479 H        1 UNL1     0.0623
     45 H         -2.949495   5.035879   4.909512 H        1 UNL1     0.2921
     46 H         -6.02438   -2.973218   2.722903 H        1 UNL1     0.2922
     47 H         -0.691147   -1.077171   2.23699 H        1 UNL1     0.2126
     48 H         1.997047   -0.18728   -0.412689 H        1 UNL1     0.2101
     49 H         -2.502833   -0.991104   -1.510262 H        1 UNL1     0.2100
     50 H         1.153553   -3.090659   -1.86995 H        1 UNL1     0.2102
@<TRIPOS>BOND
     1     1     2    1
     2     1     6    1
     3     2     3    1
     4     3     4    1
     5     3    29    1
     6     3    33    1
     7     4     5    1
     8     5     6    1
     9     5     7    1
    10     5    35    1
    11     7     8    1
    12     8     9   ar
    13     8    13   ar
    14     9    10   ar
    15     9    36    1
    16    10    11   ar
    17    10    26    1
    18    11    12   ar
    19    11    14    1
    20    12    13   ar
    21    12    17    1
    22    13    37    1
    23    14    15    1
    24    14    25    2
    25    15    16    1
    26    15    38    1
    27    15    39    1
    28    16    17    1
    29    16    18    1
    30    16    40    1
    31    18    19   ar
    32    18    23   ar
    33    19    20   ar
    34    19    41    1
    35    20    21   ar
    36    20    42    1
    37    21    22   ar
    38    21    24    1
    39    22    23   ar
    40    22    43    1
    41    23    44    1
    42    24    45    1
    43    26    46    1
    44    27    47    1
    45    28    48    1
    46    29    49    1
    47    30    50    1
    48     1    31    1
    49     1    27    1
    50     2    32    1
    51     2    28    1
    52     4    34    1
    53     4    30    1
