@<TRIPOS>MOLECULE
*****
 50 53 0 0 0
SMALL
GASTEIGER

@<TRIPOS>ATOM
     1 C         -0.43356   -1.903179   0.980174 C.3        1 UNL1     0.1889
     2 C         -0.640112   -0.875565   -0.16494 C.3        1 UNL1     0.1342
     3 C         -2.091332   -0.407199   -0.352185 C.3        1 UNL1     0.1174
     4 C         -3.112812   -1.510307   -0.064352 C.3        1 UNL1     0.1456
     5 C         -2.812001   -2.266921   1.242328 C.3        1 UNL1     0.2326
     6 O         -1.498122   -2.818446   1.193216 O.3        1 UNL1     -0.3076
     7 O         -3.053535   -1.484897   2.426144 O.3        1 UNL1     -0.4605
     8 C         -3.17008   -2.194279   3.607974 C.ar        1 UNL1     0.1310
     9 C         -3.391226   -1.634242   4.870809 C.ar        1 UNL1     0.0226
     10 C         -3.512145   -2.44042   6.008947 C.ar        1 UNL1     0.1343
     11 C         -3.43852   -3.829042   5.908201 C.ar        1 UNL1     0.1007
     12 C         -3.177024   -4.397704   4.65879 C.ar        1 UNL1     0.1389
     13 C         -3.052845   -3.586732   3.514965 C.ar        1 UNL1     0.0229
     14 C         -3.642701   -4.732293   7.064315 C.2        1 UNL1     0.1740
     15 C         -3.750971   -6.192497   6.736244 C.3        1 UNL1     0.0520
     16 C         -2.729605   -6.520595   5.655911 C.3        1 UNL1     0.1322
     17 O         -2.977874   -5.744636   4.462881 O.3        1 UNL1     -0.4828
     18 C         -1.280253   -6.483554   6.146554 C.ar        1 UNL1     -0.0067
     19 C         -0.263434   -7.0427   5.345523 C.ar        1 UNL1     -0.0516
     20 C         1.065395   -7.067878   5.785459 C.ar        1 UNL1     -0.0198
     21 C         1.388399   -6.544929   7.024822 C.ar        1 UNL1     0.1169
     22 C         0.414668   -5.957419   7.822017 C.ar        1 UNL1     -0.0198
     23 C         -0.911194   -5.915521   7.374368 C.ar        1 UNL1     -0.0516
     24 O         2.686706   -6.621261   7.435885 O.3        1 UNL1     -0.5068
     25 O         -3.797288   -4.332796   8.215398 O.2        1 UNL1     -0.2917
     26 O         -3.726008   -1.831789   7.211202 O.3        1 UNL1     -0.5058
     27 O         0.002843   -1.315341   2.195405 O.3        1 UNL1     -0.3648
     28 O         -0.222486   -1.48147   -1.402346 O.3        1 UNL1     -0.3841
     29 O         -2.339564   0.785537   0.394739 O.3        1 UNL1     -0.3863
     30 O         -3.111881   -2.453834   -1.157716 O.3        1 UNL1     -0.3829
     31 H         0.400031   -2.546052   0.676992 H        1 UNL1     0.0937
     32 H         0.0   0.0   0.0 H        1 UNL1     0.0671
     33 H         -2.218722   -0.123252   -1.406161 H        1 UNL1     0.0649
     34 H         -4.120085   -1.082585   -0.010923 H        1 UNL1     0.0683
     35 H         -3.512974   -3.110883   1.226685 H        1 UNL1     0.1085
     36 H         -3.513678   -0.565333   5.007043 H        1 UNL1     0.0691
     37 H         -2.848273   -4.053913   2.554036 H        1 UNL1     0.0691
     38 H         -4.771422   -6.378121   6.384464 H        1 UNL1     0.0385
     39 H         -3.59171   -6.77803   7.648146 H        1 UNL1     0.0385
     40 H         -2.905942   -7.560356   5.34879 H        1 UNL1     0.0789
     41 H         -0.492679   -7.467822   4.372709 H        1 UNL1     0.0623
     42 H         1.838522   -7.512531   5.163711 H        1 UNL1     0.0654
     43 H         0.659167   -5.531423   8.787758 H        1 UNL1     0.0654
     44 H         -1.64424   -5.439463   8.018463 H        1 UNL1     0.0623
     45 H         3.259277   -6.579618   6.652849 H        1 UNL1     0.2921
     46 H         -4.669652   -1.627423   7.307031 H        1 UNL1     0.2922
     47 H         -0.757753   -1.060853   2.73632 H        1 UNL1     0.2126
     48 H         0.746268   -1.369969   -1.455399 H        1 UNL1     0.2101
     49 H         -1.650526   0.902712   1.068007 H        1 UNL1     0.2100
     50 H         -2.882034   -1.966802   -1.976058 H        1 UNL1     0.2102
@<TRIPOS>BOND
     1     1     2    1
     2     1     6    1
     3     2     3    1
     4     3     4    1
     5     3    29    1
     6     3    33    1
     7     4     5    1
     8     5     6    1
     9     5     7    1
    10     5    35    1
    11     7     8    1
    12     8     9   ar
    13     8    13   ar
    14     9    10   ar
    15     9    36    1
    16    10    11   ar
    17    10    26    1
    18    11    12   ar
    19    11    14    1
    20    12    13   ar
    21    12    17    1
    22    13    37    1
    23    14    15    1
    24    14    25    2
    25    15    16    1
    26    15    38    1
    27    15    39    1
    28    16    17    1
    29    16    18    1
    30    16    40    1
    31    18    19   ar
    32    18    23   ar
    33    19    20   ar
    34    19    41    1
    35    20    21   ar
    36    20    42    1
    37    21    22   ar
    38    21    24    1
    39    22    23   ar
    40    22    43    1
    41    23    44    1
    42    24    45    1
    43    26    46    1
    44    27    47    1
    45    28    48    1
    46    29    49    1
    47    30    50    1
    48     1    31    1
    49     1    27    1
    50     2    32    1
    51     2    28    1
    52     4    34    1
    53     4    30    1
