@<TRIPOS>MOLECULE
*****
 50 53 0 0 0
SMALL
GASTEIGER

@<TRIPOS>ATOM
     1 C         -0.377579   -1.363959   1.663687 C.3        1 UNL1     0.1889
     2 C         -0.501519   -0.960861   0.169669 C.3        1 UNL1     0.1342
     3 C         -1.943488   -0.872697   -0.353225 C.3        1 UNL1     0.1174
     4 C         -2.869422   -1.913716   0.280843 C.3        1 UNL1     0.1456
     5 C         -2.710597   -1.9913   1.810261 C.3        1 UNL1     0.2326
     6 O         -1.354049   -2.276081   2.144243 O.3        1 UNL1     -0.3076
     7 O         -3.233766   -0.84154   2.499947 O.3        1 UNL1     -0.4605
     8 C         -3.755585   -1.075686   3.759474 C.ar        1 UNL1     0.1310
     9 C         -4.61828   -2.124034   4.097151 C.ar        1 UNL1     0.0226
     10 C         -5.080298   -2.28726   5.408562 C.ar        1 UNL1     0.1343
     11 C         -4.671461   -1.419182   6.420063 C.ar        1 UNL1     0.1007
     12 C         -3.842859   -0.344378   6.086901 C.ar        1 UNL1     0.1389
     13 C         -3.380552   -0.178925   4.767685 C.ar        1 UNL1     0.0229
     14 C         -5.061758   -1.594413   7.838201 C.2        1 UNL1     0.1740
     15 C         -4.355159   -0.707071   8.82049 C.3        1 UNL1     0.0520
     16 C         -4.22524   0.681139   8.208975 C.3        1 UNL1     0.1322
     17 O         -3.466603   0.631387   6.980535 O.3        1 UNL1     -0.4828
     18 C         -5.553135   1.435117   8.104401 C.ar        1 UNL1     -0.0067
     19 C         -5.775056   2.56334   8.920537 C.ar        1 UNL1     -0.0516
     20 C         -6.996056   3.247293   8.884068 C.ar        1 UNL1     -0.0198
     21 C         -8.003442   2.809544   8.04301 C.ar        1 UNL1     0.1169
     22 C         -7.803026   1.72186   7.203001 C.ar        1 UNL1     -0.0198
     23 C         -6.57557   1.048891   7.225851 C.ar        1 UNL1     -0.0516
     24 O         -9.192301   3.477858   8.062258 O.3        1 UNL1     -0.5068
     25 O         -5.848828   -2.455928   8.221342 O.2        1 UNL1     -0.2917
     26 O         -5.920575   -3.329487   5.671777 O.3        1 UNL1     -0.5058
     27 O         -0.220433   -0.256821   2.536806 O.3        1 UNL1     -0.3648
     28 O         0.183506   -1.945347   -0.62672 O.3        1 UNL1     -0.3841
     29 O         -2.445402   0.45999   -0.234232 O.3        1 UNL1     -0.3863
     30 O         -2.579129   -3.21151   -0.282316 O.3        1 UNL1     -0.3829
     31 H         0.56157   -1.919495   1.760938 H        1 UNL1     0.0937
     32 H         0.0   0.0   0.0 H        1 UNL1     0.0671
     33 H         -1.922346   -1.081272   -1.432007 H        1 UNL1     0.0649
     34 H         -3.912613   -1.684436   0.036743 H        1 UNL1     0.0683
     35 H         -3.300397   -2.872218   2.093102 H        1 UNL1     0.1085
     36 H         -4.928031   -2.864882   3.368235 H        1 UNL1     0.0691
     37 H         -2.737228   0.666647   4.533946 H        1 UNL1     0.0691
     38 H         -3.371052   -1.146465   9.015409 H        1 UNL1     0.0385
     39 H         -4.916427   -0.694331   9.761019 H        1 UNL1     0.0385
     40 H         -3.604844   1.278433   8.890788 H        1 UNL1     0.0789
     41 H         -5.003465   2.921323   9.595923 H        1 UNL1     0.0623
     42 H         -7.159255   4.108753   9.526924 H        1 UNL1     0.0654
     43 H         -8.579805   1.379773   6.529577 H        1 UNL1     0.0654
     44 H         -6.449904   0.20968   6.54852 H        1 UNL1     0.0623
     45 H         -9.216085   4.083326   7.303602 H        1 UNL1     0.2921
     46 H         -5.705761   -3.707092   6.539349 H        1 UNL1     0.2922
     47 H         0.625573   0.182351   2.371696 H        1 UNL1     0.2126
     48 H         -0.22413   -1.920392   -1.513818 H        1 UNL1     0.2101
     49 H         -2.985704   0.538737   0.568056 H        1 UNL1     0.2100
     50 H         -2.059721   -3.716889   0.376866 H        1 UNL1     0.2102
@<TRIPOS>BOND
     1     1     2    1
     2     1     6    1
     3     2     3    1
     4     3     4    1
     5     3    29    1
     6     3    33    1
     7     4     5    1
     8     5     6    1
     9     5     7    1
    10     5    35    1
    11     7     8    1
    12     8     9   ar
    13     8    13   ar
    14     9    10   ar
    15     9    36    1
    16    10    11   ar
    17    10    26    1
    18    11    12   ar
    19    11    14    1
    20    12    13   ar
    21    12    17    1
    22    13    37    1
    23    14    15    1
    24    14    25    2
    25    15    16    1
    26    15    38    1
    27    15    39    1
    28    16    17    1
    29    16    18    1
    30    16    40    1
    31    18    19   ar
    32    18    23   ar
    33    19    20   ar
    34    19    41    1
    35    20    21   ar
    36    20    42    1
    37    21    22   ar
    38    21    24    1
    39    22    23   ar
    40    22    43    1
    41    23    44    1
    42    24    45    1
    43    26    46    1
    44    27    47    1
    45    28    48    1
    46    29    49    1
    47    30    50    1
    48     1    31    1
    49     1    27    1
    50     2    32    1
    51     2    28    1
    52     4    34    1
    53     4    30    1
