@<TRIPOS>MOLECULE
*****
 50 53 0 0 0
SMALL
GASTEIGER

@<TRIPOS>ATOM
     1 C         -0.331378   -1.327694   1.702416 C.3        1 UNL1     0.1889
     2 C         -0.462211   -0.975414   0.196189 C.3        1 UNL1     0.1342
     3 C         -1.90315   -0.963399   -0.336742 C.3        1 UNL1     0.1174
     4 C         -2.789101   -2.022576   0.323827 C.3        1 UNL1     0.1456
     5 C         -2.637188   -2.047249   1.855714 C.3        1 UNL1     0.2326
     6 O         -1.272179   -2.264892   2.205357 O.3        1 UNL1     -0.3076
     7 O         -3.212232   -0.900053   2.507317 O.3        1 UNL1     -0.4605
     8 C         -3.721469   -1.115049   3.775379 C.ar        1 UNL1     0.1310
     9 C         -4.537347   -2.188112   4.149785 C.ar        1 UNL1     0.0226
     10 C         -4.989839   -2.327997   5.467202 C.ar        1 UNL1     0.1343
     11 C         -4.617503   -1.410243   6.448493 C.ar        1 UNL1     0.1007
     12 C         -3.836826   -0.31209   6.077833 C.ar        1 UNL1     0.1389
     13 C         -3.384155   -0.170226   4.752543 C.ar        1 UNL1     0.0229
     14 C         -4.997655   -1.5555   7.872761 C.2        1 UNL1     0.1740
     15 C         -4.328719   -0.606572   8.823344 C.3        1 UNL1     0.0520
     16 C         -4.260091   0.765108   8.166275 C.3        1 UNL1     0.1322
     17 O         -3.501893   0.707906   6.937888 O.3        1 UNL1     -0.4828
     18 C         -5.619609   1.457015   8.04097 C.ar        1 UNL1     -0.0067
     19 C         -5.999293   2.019102   6.804802 C.ar        1 UNL1     -0.0516
     20 C         -7.214833   2.700159   6.668478 C.ar        1 UNL1     -0.0198
     21 C         -8.054216   2.832035   7.760207 C.ar        1 UNL1     0.1169
     22 C         -7.723319   2.260537   8.981983 C.ar        1 UNL1     -0.0198
     23 C         -6.516317   1.563524   9.1138 C.ar        1 UNL1     -0.0516
     24 O         -9.212201   3.534573   7.599232 O.3        1 UNL1     -0.5068
     25 O         -5.746017   -2.437237   8.286258 O.2        1 UNL1     -0.2917
     26 O         -5.7837   -3.396426   5.766919 O.3        1 UNL1     -0.5058
     27 O         -0.226137   -0.189102   2.54225 O.3        1 UNL1     -0.3648
     28 O         0.268367   -1.954015   -0.566243 O.3        1 UNL1     -0.3841
     29 O         -2.460837   0.350139   -0.261014 O.3        1 UNL1     -0.3863
     30 O         -2.441395   -3.323519   -0.198033 O.3        1 UNL1     -0.3829
     31 H         0.629412   -1.840319   1.821481 H        1 UNL1     0.0937
     32 H         0.0   0.0   0.0 H        1 UNL1     0.0671
     33 H         -1.866298   -1.203382   -1.408549 H        1 UNL1     0.0649
     34 H         -3.839309   -1.844555   0.067364 H        1 UNL1     0.0683
     35 H         -3.191666   -2.943098   2.162122 H        1 UNL1     0.1085
     36 H         -4.815779   -2.965244   3.446463 H        1 UNL1     0.0691
     37 H         -2.778484   0.694277   4.489313 H        1 UNL1     0.0691
     38 H         -3.326177   -0.996282   9.02965 H        1 UNL1     0.0385
     39 H         -4.888569   -0.587243   9.764606 H        1 UNL1     0.0385
     40 H         -3.665151   1.410804   8.826308 H        1 UNL1     0.0789
     41 H         -5.353788   1.937151   5.935171 H        1 UNL1     0.0623
     42 H         -7.490906   3.139474   5.713073 H        1 UNL1     0.0654
     43 H         -8.380231   2.344856   9.83946 H        1 UNL1     0.0654
     44 H         -6.294672   1.120717   10.080051 H        1 UNL1     0.0623
     45 H         -8.98656   4.442066   7.337967 H        1 UNL1     0.2921
     46 H         -5.379416   -3.908491   6.485081 H        1 UNL1     0.2922
     47 H         0.516675   0.364671   2.263997 H        1 UNL1     0.2126
     48 H         1.201329   -1.887883   -0.285276 H        1 UNL1     0.2101
     49 H         -2.022155   0.932351   -0.901625 H        1 UNL1     0.2100
     50 H         -2.674833   -3.339011   -1.149337 H        1 UNL1     0.2102
@<TRIPOS>BOND
     1     1     2    1
     2     1     6    1
     3     2     3    1
     4     3     4    1
     5     3    29    1
     6     3    33    1
     7     4     5    1
     8     5     6    1
     9     5     7    1
    10     5    35    1
    11     7     8    1
    12     8     9   ar
    13     8    13   ar
    14     9    10   ar
    15     9    36    1
    16    10    11   ar
    17    10    26    1
    18    11    12   ar
    19    11    14    1
    20    12    13   ar
    21    12    17    1
    22    13    37    1
    23    14    15    1
    24    14    25    2
    25    15    16    1
    26    15    38    1
    27    15    39    1
    28    16    17    1
    29    16    18    1
    30    16    40    1
    31    18    19   ar
    32    18    23   ar
    33    19    20   ar
    34    19    41    1
    35    20    21   ar
    36    20    42    1
    37    21    22   ar
    38    21    24    1
    39    22    23   ar
    40    22    43    1
    41    23    44    1
    42    24    45    1
    43    26    46    1
    44    27    47    1
    45    28    48    1
    46    29    49    1
    47    30    50    1
    48     1    31    1
    49     1    27    1
    50     2    32    1
    51     2    28    1
    52     4    34    1
    53     4    30    1
