@<TRIPOS>MOLECULE
*****
 50 53 0 0 0
SMALL
GASTEIGER

@<TRIPOS>ATOM
     1 C         -0.185732   1.303188   -1.742989 C.3        1 UNL1     0.1889
     2 C         0.333766   0.017591   -1.044918 C.3        1 UNL1     0.1342
     3 C         1.858887   -0.163255   -1.086922 C.3        1 UNL1     0.1174
     4 C         2.482981   0.358949   -2.383427 C.3        1 UNL1     0.1456
     5 C         1.95868   1.753711   -2.770872 C.3        1 UNL1     0.2326
     6 O         0.538217   1.723164   -2.890121 O.3        1 UNL1     -0.3076
     7 O         2.431629   2.803945   -1.907942 O.3        1 UNL1     -0.4605
     8 C         1.942851   4.070985   -2.171065 C.ar        1 UNL1     0.1310
     9 C         1.0092   4.389502   -3.163104 C.ar        1 UNL1     0.0226
     10 C         0.562019   5.704172   -3.340795 C.ar        1 UNL1     0.1343
     11 C         1.02023   6.729273   -2.514326 C.ar        1 UNL1     0.1007
     12 C         1.983481   6.430688   -1.546969 C.ar        1 UNL1     0.1389
     13 C         2.434936   5.109179   -1.370237 C.ar        1 UNL1     0.0229
     14 C         0.518771   8.120249   -2.603077 C.2        1 UNL1     0.1740
     15 C         0.951473   9.038187   -1.497768 C.3        1 UNL1     0.0520
     16 C         2.411479   8.750259   -1.176152 C.3        1 UNL1     0.1322
     17 O         2.582485   7.379958   -0.751767 O.3        1 UNL1     -0.4828
     18 C         3.38375   9.202069   -2.268526 C.ar        1 UNL1     -0.0067
     19 C         4.193712   10.335255   -2.049289 C.ar        1 UNL1     -0.0516
     20 C         5.059091   10.803226   -3.045323 C.ar        1 UNL1     -0.0198
     21 C         5.118172   10.152638   -4.264778 C.ar        1 UNL1     0.1169
     22 C         4.357582   9.01436   -4.498586 C.ar        1 UNL1     -0.0198
     23 C         3.505757   8.535317   -3.496106 C.ar        1 UNL1     -0.0516
     24 O         5.944613   10.659608   -5.224141 O.3        1 UNL1     -0.5068
     25 O         -0.264978   8.502512   -3.468003 O.2        1 UNL1     -0.2917
     26 O         -0.348541   5.948402   -4.32711 O.3        1 UNL1     -0.5058
     27 O         -0.417463   2.378644   -0.847176 O.3        1 UNL1     -0.3648
     28 O         -0.251165   -1.12426   -1.69817 O.3        1 UNL1     -0.3841
     29 O         2.467405   0.3894   0.082015 O.3        1 UNL1     -0.3863
     30 O         2.187812   -0.562189   -3.45584 O.3        1 UNL1     -0.3829
     31 H         -1.1784   1.064246   -2.139972 H        1 UNL1     0.0937
     32 H         0.0   0.0   0.0 H        1 UNL1     0.0671
     33 H         2.070104   -1.240878   -1.044078 H        1 UNL1     0.0649
     34 H         3.573483   0.397096   -2.284677 H        1 UNL1     0.0683
     35 H         2.359963   1.916496   -3.779014 H        1 UNL1     0.1085
     36 H         0.572994   3.628637   -3.801015 H        1 UNL1     0.0691
     37 H         3.18615   4.903115   -0.610824 H        1 UNL1     0.0691
     38 H         0.309939   8.840063   -0.632489 H        1 UNL1     0.0385
     39 H         0.793238   10.07597   -1.81041 H        1 UNL1     0.0385
     40 H         2.671586   9.346314   -0.29095 H        1 UNL1     0.0789
     41 H         4.158997   10.868903   -1.10395 H        1 UNL1     0.0623
     42 H         5.669813   11.685122   -2.868433 H        1 UNL1     0.0654
     43 H         4.407278   8.488374   -5.444514 H        1 UNL1     0.0654
     44 H         2.933942   7.637311   -3.709311 H        1 UNL1     0.0623
     45 H         6.762964   10.137146   -5.231302 H        1 UNL1     0.2921
     46 H         -1.046336   6.530129   -3.986393 H        1 UNL1     0.2922
     47 H         -1.188418   2.192738   -0.293167 H        1 UNL1     0.2126
     48 H         0.160624   -1.915419   -1.30039 H        1 UNL1     0.2101
     49 H         3.414307   0.177146   0.092875 H        1 UNL1     0.2100
     50 H         1.46212   -0.179259   -3.991048 H        1 UNL1     0.2102
@<TRIPOS>BOND
     1     1     2    1
     2     1     6    1
     3     2     3    1
     4     3     4    1
     5     3    29    1
     6     3    33    1
     7     4     5    1
     8     5     6    1
     9     5     7    1
    10     5    35    1
    11     7     8    1
    12     8     9   ar
    13     8    13   ar
    14     9    10   ar
    15     9    36    1
    16    10    11   ar
    17    10    26    1
    18    11    12   ar
    19    11    14    1
    20    12    13   ar
    21    12    17    1
    22    13    37    1
    23    14    15    1
    24    14    25    2
    25    15    16    1
    26    15    38    1
    27    15    39    1
    28    16    17    1
    29    16    18    1
    30    16    40    1
    31    18    19   ar
    32    18    23   ar
    33    19    20   ar
    34    19    41    1
    35    20    21   ar
    36    20    42    1
    37    21    22   ar
    38    21    24    1
    39    22    23   ar
    40    22    43    1
    41    23    44    1
    42    24    45    1
    43    26    46    1
    44    27    47    1
    45    28    48    1
    46    29    49    1
    47    30    50    1
    48     1    31    1
    49     1    27    1
    50     2    32    1
    51     2    28    1
    52     4    34    1
    53     4    30    1
