@<TRIPOS>MOLECULE
*****
 50 53 0 0 0
SMALL
GASTEIGER

@<TRIPOS>ATOM
     1 C         -0.330674   -1.327363   1.702811 C.3        1 UNL1     0.1889
     2 C         -0.461836   -0.975527   0.196509 C.3        1 UNL1     0.1342
     3 C         -1.902852   -0.964166   -0.336229 C.3        1 UNL1     0.1174
     4 C         -2.788336   -2.023485   0.324739 C.3        1 UNL1     0.1456
     5 C         -2.636206   -2.047699   1.856612 C.3        1 UNL1     0.2326
     6 O         -1.271072   -2.264764   2.206127 O.3        1 UNL1     -0.3076
     7 O         -3.21157   -0.900537   2.507991 O.3        1 UNL1     -0.4605
     8 C         -3.720559   -1.11538   3.776179 C.ar        1 UNL1     0.1310
     9 C         -4.533161   -2.1905   4.151804 C.ar        1 UNL1     0.0226
     10 C         -4.985659   -2.329984   5.46926 C.ar        1 UNL1     0.1343
     11 C         -4.616569   -1.409689   6.449398 C.ar        1 UNL1     0.1007
     12 C         -3.839249   -0.309586   6.077473 C.ar        1 UNL1     0.1389
     13 C         -3.386575   -0.168133   4.752139 C.ar        1 UNL1     0.0229
     14 C         -4.996748   -1.554167   7.873738 C.2        1 UNL1     0.1740
     15 C         -4.331148   -0.601802   8.823225 C.3        1 UNL1     0.0520
     16 C         -4.266641   0.769173   8.164268 C.3        1 UNL1     0.1322
     17 O         -3.507845   0.712663   6.936219 O.3        1 UNL1     -0.4828
     18 C         -5.628301   1.456593   8.037539 C.ar        1 UNL1     -0.0067
     19 C         -5.83234   2.405933   7.015123 C.ar        1 UNL1     -0.0516
     20 C         -7.049804   3.087521   6.900312 C.ar        1 UNL1     -0.0198
     21 C         -8.066185   2.834656   7.804113 C.ar        1 UNL1     0.1169
     22 C         -7.907135   1.881192   8.801334 C.ar        1 UNL1     -0.0198
     23 C         -6.696284   1.186116   8.905093 C.ar        1 UNL1     -0.0516
     24 O         -9.224308   3.545096   7.684009 O.3        1 UNL1     -0.5068
     25 O         -5.742454   -2.437695   8.28821 O.2        1 UNL1     -0.2917
     26 O         -5.776233   -3.400505   5.770198 O.3        1 UNL1     -0.5058
     27 O         -0.225724   -0.188513   2.54233 O.3        1 UNL1     -0.3648
     28 O         0.268987   -1.954068   -0.565765 O.3        1 UNL1     -0.3841
     29 O         -2.460997   0.349193   -0.260772 O.3        1 UNL1     -0.3863
     30 O         -2.440237   -3.324441   -0.196825 O.3        1 UNL1     -0.3829
     31 H         0.630316   -1.839614   1.821881 H        1 UNL1     0.0937
     32 H         0.0   0.0   0.0 H        1 UNL1     0.0671
     33 H         -1.866061   -1.204418   -1.407978 H        1 UNL1     0.0649
     34 H         -3.838642   -1.845905   0.068373 H        1 UNL1     0.0683
     35 H         -3.190324   -2.943665   2.163332 H        1 UNL1     0.1085
     36 H         -4.808887   -2.969489   3.44947 H        1 UNL1     0.0691
     37 H         -2.783556   0.697918   4.48791 H        1 UNL1     0.0691
     38 H         -3.327447   -0.988045   9.030413 H        1 UNL1     0.0385
     39 H         -4.891379   -0.582937   9.764269 H        1 UNL1     0.0385
     40 H         -3.673976   1.417669   8.823602 H        1 UNL1     0.0789
     41 H         -5.046973   2.628964   6.298808 H        1 UNL1     0.0623
     42 H         -7.190723   3.825911   6.11486 H        1 UNL1     0.0654
     43 H         -8.701853   1.664495   9.505163 H        1 UNL1     0.0654
     44 H         -6.610496   0.440511   9.689668 H        1 UNL1     0.0623
     45 H         -9.017559   4.488234   7.786299 H        1 UNL1     0.2921
     46 H         -5.369926   -3.911013   6.488326 H        1 UNL1     0.2922
     47 H         0.516958   0.365364   2.263937 H        1 UNL1     0.2126
     48 H         1.201843   -1.888018   -0.28443 H        1 UNL1     0.2101
     49 H         -2.02261   0.931392   -0.901596 H        1 UNL1     0.2100
     50 H         -2.673799   -3.340267   -1.148093 H        1 UNL1     0.2102
@<TRIPOS>BOND
     1     1     2    1
     2     1     6    1
     3     2     3    1
     4     3     4    1
     5     3    29    1
     6     3    33    1
     7     4     5    1
     8     5     6    1
     9     5     7    1
    10     5    35    1
    11     7     8    1
    12     8     9   ar
    13     8    13   ar
    14     9    10   ar
    15     9    36    1
    16    10    11   ar
    17    10    26    1
    18    11    12   ar
    19    11    14    1
    20    12    13   ar
    21    12    17    1
    22    13    37    1
    23    14    15    1
    24    14    25    2
    25    15    16    1
    26    15    38    1
    27    15    39    1
    28    16    17    1
    29    16    18    1
    30    16    40    1
    31    18    19   ar
    32    18    23   ar
    33    19    20   ar
    34    19    41    1
    35    20    21   ar
    36    20    42    1
    37    21    22   ar
    38    21    24    1
    39    22    23   ar
    40    22    43    1
    41    23    44    1
    42    24    45    1
    43    26    46    1
    44    27    47    1
    45    28    48    1
    46    29    49    1
    47    30    50    1
    48     1    31    1
    49     1    27    1
    50     2    32    1
    51     2    28    1
    52     4    34    1
    53     4    30    1
