@<TRIPOS>MOLECULE
*****
 50 53 0 0 0
SMALL
GASTEIGER

@<TRIPOS>ATOM
     1 C         -0.354293   -1.411655   1.628653 C.3        1 UNL1     0.1889
     2 C         -0.4841   -0.973753   0.144964 C.3        1 UNL1     0.1342
     3 C         -1.926926   -0.898814   -0.377629 C.3        1 UNL1     0.1174
     4 C         -2.834363   -1.971983   0.228989 C.3        1 UNL1     0.1456
     5 C         -2.67564   -2.084774   1.756224 C.3        1 UNL1     0.2326
     6 O         -1.314456   -2.35308   2.084945 O.3        1 UNL1     -0.3076
     7 O         -3.220335   -0.96227   2.47359 O.3        1 UNL1     -0.4605
     8 C         -3.739028   -1.237197   3.726148 C.ar        1 UNL1     0.1310
     9 C         -4.582814   -2.30915   4.036374 C.ar        1 UNL1     0.0226
     10 C         -5.04306   -2.513397   5.342651 C.ar        1 UNL1     0.1343
     11 C         -4.651086   -1.663517   6.376044 C.ar        1 UNL1     0.1007
     12 C         -3.841873   -0.565851   6.070942 C.ar        1 UNL1     0.1389
     13 C         -3.381373   -0.35918   4.756919 C.ar        1 UNL1     0.0229
     14 C         -5.039507   -1.88112   7.788819 C.2        1 UNL1     0.1740
     15 C         -4.350144   -1.005842   8.793915 C.3        1 UNL1     0.0520
     16 C         -4.244934   0.399316   8.217357 C.3        1 UNL1     0.1322
     17 O         -3.484322   0.39401   6.989142 O.3        1 UNL1     -0.4828
     18 C         -5.586239   1.131396   8.129702 C.ar        1 UNL1     -0.0067
     19 C         -5.6078   2.498601   7.785465 C.ar        1 UNL1     -0.0516
     20 C         -6.813026   3.209626   7.742616 C.ar        1 UNL1     -0.0198
     21 C         -7.999959   2.568116   8.048362 C.ar        1 UNL1     0.1169
     22 C         -8.014734   1.214405   8.358344 C.ar        1 UNL1     -0.0198
     23 C         -6.811726   0.498719   8.383272 C.ar        1 UNL1     -0.0516
     24 O         -9.149508   3.302078   8.033007 O.3        1 UNL1     -0.5068
     25 O         -5.811128   -2.766089   8.149256 O.2        1 UNL1     -0.2917
     26 O         -5.864471   -3.576969   5.578623 O.3        1 UNL1     -0.5058
     27 O         -0.218189   -0.323955   2.529304 O.3        1 UNL1     -0.3648
     28 O         0.219517   -1.925458   -0.674722 O.3        1 UNL1     -0.3841
     29 O         -2.453145   0.421145   -0.226191 O.3        1 UNL1     -0.3863
     30 O         -2.519932   -3.24984   -0.36591 O.3        1 UNL1     -0.3829
     31 H         0.594723   -1.952274   1.713375 H        1 UNL1     0.0937
     32 H         0.0   0.0   0.0 H        1 UNL1     0.0671
     33 H         -1.900939   -1.080008   -1.46124 H        1 UNL1     0.0649
     34 H         -3.881318   -1.755695   -0.010813 H        1 UNL1     0.0683
     35 H         -3.249573   -2.983049   2.016192 H        1 UNL1     0.1085
     36 H         -4.878311   -3.037105   3.288787 H        1 UNL1     0.0691
     37 H         -2.753329   0.503515   4.545234 H        1 UNL1     0.0691
     38 H         -3.358387   -1.431992   8.979232 H        1 UNL1     0.0385
     39 H         -4.912465   -1.026764   9.733668 H        1 UNL1     0.0385
     40 H         -3.636184   0.990606   8.914722 H        1 UNL1     0.0789
     41 H         -4.688624   3.027178   7.550151 H        1 UNL1     0.0623
     42 H         -6.815233   4.266441   7.487372 H        1 UNL1     0.0654
     43 H         -8.940268   0.698612   8.584737 H        1 UNL1     0.0654
     44 H         -6.861603   -0.559928   8.619122 H        1 UNL1     0.0623
     45 H         -8.915169   4.240758   8.114753 H        1 UNL1     0.2921
     46 H         -5.643659   -3.972119   6.436824 H        1 UNL1     0.2922
     47 H         -0.286938   -0.635005   3.442749 H        1 UNL1     0.2126
     48 H         0.94109   -1.436113   -1.114729 H        1 UNL1     0.2101
     49 H         -2.995572   0.470027   0.577038 H        1 UNL1     0.2100
     50 H         -1.571404   -3.243199   -0.61078 H        1 UNL1     0.2102
@<TRIPOS>BOND
     1     1     2    1
     2     1     6    1
     3     2     3    1
     4     3     4    1
     5     3    29    1
     6     3    33    1
     7     4     5    1
     8     5     6    1
     9     5     7    1
    10     5    35    1
    11     7     8    1
    12     8     9   ar
    13     8    13   ar
    14     9    10   ar
    15     9    36    1
    16    10    11   ar
    17    10    26    1
    18    11    12   ar
    19    11    14    1
    20    12    13   ar
    21    12    17    1
    22    13    37    1
    23    14    15    1
    24    14    25    2
    25    15    16    1
    26    15    38    1
    27    15    39    1
    28    16    17    1
    29    16    18    1
    30    16    40    1
    31    18    19   ar
    32    18    23   ar
    33    19    20   ar
    34    19    41    1
    35    20    21   ar
    36    20    42    1
    37    21    22   ar
    38    21    24    1
    39    22    23   ar
    40    22    43    1
    41    23    44    1
    42    24    45    1
    43    26    46    1
    44    27    47    1
    45    28    48    1
    46    29    49    1
    47    30    50    1
    48     1    31    1
    49     1    27    1
    50     2    32    1
    51     2    28    1
    52     4    34    1
    53     4    30    1
