@<TRIPOS>MOLECULE
*****
 50 53 0 0 0
SMALL
GASTEIGER

@<TRIPOS>ATOM
     1 C         -0.330498   -1.327448   1.702779 C.3        1 UNL1     0.1889
     2 C         -0.461488   -0.975706   0.196439 C.3        1 UNL1     0.1342
     3 C         -1.902397   -0.964935   -0.336599 C.3        1 UNL1     0.1174
     4 C         -2.787595   -2.024589   0.324214 C.3        1 UNL1     0.1456
     5 C         -2.635774   -2.048701   1.856119 C.3        1 UNL1     0.2326
     6 O         -1.270627   -2.26521   2.205925 O.3        1 UNL1     -0.3076
     7 O         -3.211732   -0.90175   2.507347 O.3        1 UNL1     -0.4605
     8 C         -3.720899   -1.116761   3.775435 C.ar        1 UNL1     0.1310
     9 C         -4.535993   -2.190331   4.150095 C.ar        1 UNL1     0.0226
     10 C         -4.988475   -2.330175   5.467519 C.ar        1 UNL1     0.1343
     11 C         -4.616903   -1.411853   6.44857 C.ar        1 UNL1     0.1007
     12 C         -3.83703   -0.313219   6.077646 C.ar        1 UNL1     0.1389
     13 C         -3.38437   -0.171399   4.752347 C.ar        1 UNL1     0.0229
     14 C         -4.99705   -1.556982   7.872852 C.2        1 UNL1     0.1740
     15 C         -4.328899   -0.607273   8.823208 C.3        1 UNL1     0.0520
     16 C         -4.26126   0.764268   8.165744 C.3        1 UNL1     0.1322
     17 O         -3.502931   0.707281   6.937428 O.3        1 UNL1     -0.4828
     18 C         -5.621291   1.45511   8.040139 C.ar        1 UNL1     -0.0067
     19 C         -6.00131   2.01655   6.803779 C.ar        1 UNL1     -0.0516
     20 C         -7.217356   2.696649   6.667169 C.ar        1 UNL1     -0.0198
     21 C         -8.056917   2.828208   7.758799 C.ar        1 UNL1     0.1169
     22 C         -7.725677   2.257317   8.980765 C.ar        1 UNL1     -0.0198
     23 C         -6.518158   1.561255   9.112873 C.ar        1 UNL1     -0.0516
     24 O         -9.215421   3.529824   7.597535 O.3        1 UNL1     -0.5068
     25 O         -5.744775   -2.439164   8.286552 O.2        1 UNL1     -0.2917
     26 O         -5.78155   -3.399115   5.767491 O.3        1 UNL1     -0.5058
     27 O         -0.226179   -0.188532   2.542289 O.3        1 UNL1     -0.3648
     28 O         0.269885   -1.953976   -0.565655 O.3        1 UNL1     -0.3841
     29 O         -2.461082   0.348203   -0.261294 O.3        1 UNL1     -0.3863
     30 O         -2.438868   -3.325421   -0.197241 O.3        1 UNL1     -0.3829
     31 H         0.630671   -1.839311   1.822063 H        1 UNL1     0.0937
     32 H         0.0   0.0   0.0 H        1 UNL1     0.0671
     33 H         -1.865286   -1.205202   -1.408333 H        1 UNL1     0.0649
     34 H         -3.837919   -1.847436   0.067624 H        1 UNL1     0.0683
     35 H         -3.189598   -2.944879   2.162749 H        1 UNL1     0.1085
     36 H         -4.813786   -2.967878   3.446978 H        1 UNL1     0.0691
     37 H         -2.779334   0.693485   4.488909 H        1 UNL1     0.0691
     38 H         -3.326078   -0.996164   9.0297 H        1 UNL1     0.0385
     39 H         -4.888832   -0.588092   9.764423 H        1 UNL1     0.0385
     40 H         -3.666857   1.410606   8.825631 H        1 UNL1     0.0789
     41 H         -5.355681   1.934834   5.934219 H        1 UNL1     0.0623
     42 H         -7.493691   3.135476   5.711616 H        1 UNL1     0.0654
     43 H         -8.382715   2.341389   9.83817 H        1 UNL1     0.0654
     44 H         -6.296249   1.118897   10.079269 H        1 UNL1     0.0623
     45 H         -8.990467   4.43722   7.335342 H        1 UNL1     0.2921
     46 H         -5.376759   -3.910859   6.485595 H        1 UNL1     0.2922
     47 H         0.516341   0.365633   2.264034 H        1 UNL1     0.2126
     48 H         1.202656   -1.887546   -0.284127 H        1 UNL1     0.2101
     49 H         -2.022853   0.930538   -0.902103 H        1 UNL1     0.2100
     50 H         -2.672225   -3.341366   -1.148557 H        1 UNL1     0.2102
@<TRIPOS>BOND
     1     1     2    1
     2     1     6    1
     3     2     3    1
     4     3     4    1
     5     3    29    1
     6     3    33    1
     7     4     5    1
     8     5     6    1
     9     5     7    1
    10     5    35    1
    11     7     8    1
    12     8     9   ar
    13     8    13   ar
    14     9    10   ar
    15     9    36    1
    16    10    11   ar
    17    10    26    1
    18    11    12   ar
    19    11    14    1
    20    12    13   ar
    21    12    17    1
    22    13    37    1
    23    14    15    1
    24    14    25    2
    25    15    16    1
    26    15    38    1
    27    15    39    1
    28    16    17    1
    29    16    18    1
    30    16    40    1
    31    18    19   ar
    32    18    23   ar
    33    19    20   ar
    34    19    41    1
    35    20    21   ar
    36    20    42    1
    37    21    22   ar
    38    21    24    1
    39    22    23   ar
    40    22    43    1
    41    23    44    1
    42    24    45    1
    43    26    46    1
    44    27    47    1
    45    28    48    1
    46    29    49    1
    47    30    50    1
    48     1    31    1
    49     1    27    1
    50     2    32    1
    51     2    28    1
    52     4    34    1
    53     4    30    1
