@<TRIPOS>MOLECULE
*****
 50 53 0 0 0
SMALL
GASTEIGER

@<TRIPOS>ATOM
     1 C         1.328007   0.664775   -1.601648 C.3        1 UNL1     0.1889
     2 C         -0.032554   0.687326   -0.85445 C.3        1 UNL1     0.1342
     3 C         -1.249349   0.34423   -1.727468 C.3        1 UNL1     0.1174
     4 C         -1.110147   0.851048   -3.165131 C.3        1 UNL1     0.1456
     5 C         0.267525   0.530566   -3.773141 C.3        1 UNL1     0.2326
     6 O         1.298859   1.083091   -2.958319 O.3        1 UNL1     -0.3076
     7 O         0.457939   -0.867628   -4.056191 O.3        1 UNL1     -0.4605
     8 C         -0.116068   -1.333069   -5.225553 C.ar        1 UNL1     0.1310
     9 C         -0.927304   -0.583539   -6.084274 C.ar        1 UNL1     0.0226
     10 C         -1.44909   -1.141478   -7.257452 C.ar        1 UNL1     0.1343
     11 C         -1.152489   -2.456615   -7.612816 C.ar        1 UNL1     0.1007
     12 C         -0.377161   -3.227664   -6.742683 C.ar        1 UNL1     0.1389
     13 C         0.145197   -2.667235   -5.561796 C.ar        1 UNL1     0.0229
     14 C         -1.607886   -3.07015   -8.881809 C.2        1 UNL1     0.1740
     15 C         -1.014208   -4.409779   -9.205056 C.3        1 UNL1     0.0520
     16 C         -0.939843   -5.22606   -7.922047 C.3        1 UNL1     0.1322
     17 O         -0.113443   -4.563282   -6.939775 O.3        1 UNL1     -0.4828
     18 C         -2.30542   -5.679488   -7.4002 C.ar        1 UNL1     -0.0067
     19 C         -3.209733   -6.307547   -8.281093 C.ar        1 UNL1     -0.0516
     20 C         -4.484503   -6.691755   -7.848302 C.ar        1 UNL1     -0.0198
     21 C         -4.868752   -6.447362   -6.54199 C.ar        1 UNL1     0.1169
     22 C         -3.988428   -5.86096   -5.641989 C.ar        1 UNL1     -0.0198
     23 C         -2.706987   -5.493378   -6.069598 C.ar        1 UNL1     -0.0516
     24 O         -6.131452   -6.801177   -6.166752 O.3        1 UNL1     -0.5068
     25 O         -2.358177   -2.506586   -9.674239 O.2        1 UNL1     -0.2917
     26 O         -2.2343   -0.357351   -8.051287 O.3        1 UNL1     -0.5058
     27 O         2.03942   -0.552539   -1.444091 O.3        1 UNL1     -0.3648
     28 O         -0.242223   2.011022   -0.328547 O.3        1 UNL1     -0.3841
     29 O         -1.544853   -1.052243   -1.659114 O.3        1 UNL1     -0.3863
     30 O         -1.304164   2.282026   -3.183853 O.3        1 UNL1     -0.3829
     31 H         1.963801   1.413404   -1.116468 H        1 UNL1     0.0937
     32 H         0.0   0.0   0.0 H        1 UNL1     0.0671
     33 H         -2.124821   0.849182   -1.295852 H        1 UNL1     0.0649
     34 H         -1.893531   0.413112   -3.793559 H        1 UNL1     0.0683
     35 H         0.275355   1.087226   -4.718628 H        1 UNL1     0.1085
     36 H         -1.148764   0.460659   -5.892635 H        1 UNL1     0.0691
     37 H         0.745086   -3.288941   -4.900655 H        1 UNL1     0.0691
     38 H         -0.016223   -4.237814   -9.622166 H        1 UNL1     0.0385
     39 H         -1.625808   -4.89792   -9.971504 H        1 UNL1     0.0385
     40 H         -0.397098   -6.151386   -8.158099 H        1 UNL1     0.0789
     41 H         -2.935375   -6.502208   -9.313801 H        1 UNL1     0.0623
     42 H         -5.177085   -7.16449   -8.540302 H        1 UNL1     0.0654
     43 H         -4.273692   -5.678642   -4.612769 H        1 UNL1     0.0654
     44 H         -2.041465   -5.047181   -5.336908 H        1 UNL1     0.0623
     45 H         -6.56677   -7.230082   -6.921242 H        1 UNL1     0.2921
     46 H         -2.330616   0.519091   -7.646336 H        1 UNL1     0.2922
     47 H         2.443373   -0.593024   -0.566 H        1 UNL1     0.2126
     48 H         0.399621   2.128184   0.398118 H        1 UNL1     0.2101
     49 H         -2.256343   -1.26989   -2.282175 H        1 UNL1     0.2100
     50 H         -1.579913   2.560676   -2.286062 H        1 UNL1     0.2102
@<TRIPOS>BOND
     1     1     2    1
     2     1     6    1
     3     2     3    1
     4     3     4    1
     5     3    29    1
     6     3    33    1
     7     4     5    1
     8     5     6    1
     9     5     7    1
    10     5    35    1
    11     7     8    1
    12     8     9   ar
    13     8    13   ar
    14     9    10   ar
    15     9    36    1
    16    10    11   ar
    17    10    26    1
    18    11    12   ar
    19    11    14    1
    20    12    13   ar
    21    12    17    1
    22    13    37    1
    23    14    15    1
    24    14    25    2
    25    15    16    1
    26    15    38    1
    27    15    39    1
    28    16    17    1
    29    16    18    1
    30    16    40    1
    31    18    19   ar
    32    18    23   ar
    33    19    20   ar
    34    19    41    1
    35    20    21   ar
    36    20    42    1
    37    21    22   ar
    38    21    24    1
    39    22    23   ar
    40    22    43    1
    41    23    44    1
    42    24    45    1
    43    26    46    1
    44    27    47    1
    45    28    48    1
    46    29    49    1
    47    30    50    1
    48     1    31    1
    49     1    27    1
    50     2    32    1
    51     2    28    1
    52     4    34    1
    53     4    30    1
