@<TRIPOS>MOLECULE
*****
 50 53 0 0 0
SMALL
GASTEIGER

@<TRIPOS>ATOM
     1 C         -0.161465   0.911191   1.978501 C.3        1 UNL1     0.1889
     2 C         0.353491   -0.195988   1.019899 C.3        1 UNL1     0.1342
     3 C         -0.040933   -1.625712   1.420879 C.3        1 UNL1     0.1174
     4 C         -0.081368   -1.826898   2.937786 C.3        1 UNL1     0.1456
     5 C         -0.827948   -0.692974   3.663871 C.3        1 UNL1     0.2326
     6 O         -0.226448   0.561868   3.353327 O.3        1 UNL1     -0.3076
     7 O         -2.249924   -0.709109   3.442408 O.3        1 UNL1     -0.4605
     8 C         -3.030966   -0.240858   4.483678 C.ar        1 UNL1     0.1310
     9 C         -2.872839   -0.580604   5.83159 C.ar        1 UNL1     0.0226
     10 C         -3.706312   -0.038539   6.817182 C.ar        1 UNL1     0.1343
     11 C         -4.703866   0.875716   6.481231 C.ar        1 UNL1     0.1007
     12 C         -4.897988   1.191239   5.133809 C.ar        1 UNL1     0.1389
     13 C         -4.061513   0.644029   4.142697 C.ar        1 UNL1     0.0229
     14 C         -5.557894   1.542977   7.49096 C.2        1 UNL1     0.1740
     15 C         -6.421107   2.657472   6.976844 C.3        1 UNL1     0.0520
     16 C         -6.983375   2.246159   5.623096 C.3        1 UNL1     0.1322
     17 O         -5.918023   1.995012   4.680218 O.3        1 UNL1     -0.4828
     18 C         -8.033914   1.135942   5.703779 C.ar        1 UNL1     -0.0067
     19 C         -7.930238   0.020815   4.847066 C.ar        1 UNL1     -0.0516
     20 C         -8.899735   -0.989045   4.861953 C.ar        1 UNL1     -0.0198
     21 C         -9.979124   -0.892027   5.721799 C.ar        1 UNL1     0.1169
     22 C         -10.091291   0.177263   6.600933 C.ar        1 UNL1     -0.0198
     23 C         -9.112243   1.178022   6.599228 C.ar        1 UNL1     -0.0516
     24 O         -10.923167   -1.875672   5.681489 O.3        1 UNL1     -0.5068
     25 O         -5.522263   1.276123   8.689294 O.2        1 UNL1     -0.2917
     26 O         -3.50035   -0.411668   8.113307 O.3        1 UNL1     -0.5058
     27 O         -1.360647   1.527896   1.537565 O.3        1 UNL1     -0.3648
     28 O         1.791814   -0.14079   0.990155 O.3        1 UNL1     -0.3841
     29 O         -1.256375   -2.015493   0.778303 O.3        1 UNL1     -0.3863
     30 O         1.269921   -1.891052   3.443346 O.3        1 UNL1     -0.3829
     31 H         0.580803   1.716488   1.95373 H        1 UNL1     0.0937
     32 H         0.0   0.0   0.0 H        1 UNL1     0.0671
     33 H         0.7273   -2.307569   1.030227 H        1 UNL1     0.0649
     34 H         -0.55833   -2.784187   3.175497 H        1 UNL1     0.0683
     35 H         -0.633124   -0.885842   4.726285 H        1 UNL1     0.1085
     36 H         -2.080398   -1.242326   6.163678 H        1 UNL1     0.0691
     37 H         -4.234086   0.904794   3.100722 H        1 UNL1     0.0691
     38 H         -5.792213   3.549801   6.888703 H        1 UNL1     0.0385
     39 H         -7.210505   2.866122   7.706977 H        1 UNL1     0.0385
     40 H         -7.512329   3.117568   5.213982 H        1 UNL1     0.0789
     41 H         -7.097343   -0.07412   4.156469 H        1 UNL1     0.0623
     42 H         -8.814863   -1.83801   4.188108 H        1 UNL1     0.0654
     43 H         -10.924567   0.255558   7.288997 H        1 UNL1     0.0654
     44 H         -9.226103   1.99362   7.306816 H        1 UNL1     0.0623
     45 H         -11.310523   -1.892704   4.791331 H        1 UNL1     0.2921
     46 H         -3.347771   0.377476   8.656798 H        1 UNL1     0.2922
     47 H         -1.245651   1.883875   0.645425 H        1 UNL1     0.2126
     48 H         2.030762   0.738757   0.639395 H        1 UNL1     0.2101
     49 H         -1.1055   -2.125993   -0.173968 H        1 UNL1     0.2100
     50 H         1.689636   -2.698384   3.08035 H        1 UNL1     0.2102
@<TRIPOS>BOND
     1     1     2    1
     2     1     6    1
     3     2     3    1
     4     3     4    1
     5     3    29    1
     6     3    33    1
     7     4     5    1
     8     5     6    1
     9     5     7    1
    10     5    35    1
    11     7     8    1
    12     8     9   ar
    13     8    13   ar
    14     9    10   ar
    15     9    36    1
    16    10    11   ar
    17    10    26    1
    18    11    12   ar
    19    11    14    1
    20    12    13   ar
    21    12    17    1
    22    13    37    1
    23    14    15    1
    24    14    25    2
    25    15    16    1
    26    15    38    1
    27    15    39    1
    28    16    17    1
    29    16    18    1
    30    16    40    1
    31    18    19   ar
    32    18    23   ar
    33    19    20   ar
    34    19    41    1
    35    20    21   ar
    36    20    42    1
    37    21    22   ar
    38    21    24    1
    39    22    23   ar
    40    22    43    1
    41    23    44    1
    42    24    45    1
    43    26    46    1
    44    27    47    1
    45    28    48    1
    46    29    49    1
    47    30    50    1
    48     1    31    1
    49     1    27    1
    50     2    32    1
    51     2    28    1
    52     4    34    1
    53     4    30    1
