@<TRIPOS>MOLECULE
*****
 50 53 0 0 0
SMALL
GASTEIGER

@<TRIPOS>ATOM
     1 C         -0.330202   -1.327141   1.703076 C.3        1 UNL1     0.1889
     2 C         -0.461585   -0.975603   0.196723 C.3        1 UNL1     0.1342
     3 C         -1.902652   -0.96468   -0.335886 C.3        1 UNL1     0.1174
     4 C         -2.787823   -2.024093   0.325351 C.3        1 UNL1     0.1456
     5 C         -2.635547   -2.048   1.857214 C.3        1 UNL1     0.2326
     6 O         -1.27033   -2.264677   2.206643 O.3        1 UNL1     -0.3076
     7 O         -3.211126   -0.90086   2.508443 O.3        1 UNL1     -0.4605
     8 C         -3.719948   -1.115601   3.776715 C.ar        1 UNL1     0.1310
     9 C         -4.535102   -2.188984   4.151779 C.ar        1 UNL1     0.0226
     10 C         -4.987212   -2.328558   5.469359 C.ar        1 UNL1     0.1343
     11 C         -4.6152   -1.41015   6.450162 C.ar        1 UNL1     0.1007
     12 C         -3.835261   -0.311696   6.078841 C.ar        1 UNL1     0.1389
     13 C         -3.382975   -0.170147   4.753386 C.ar        1 UNL1     0.0229
     14 C         -4.994943   -1.555006   7.87458 C.2        1 UNL1     0.1740
     15 C         -4.326356   -0.605262   8.824593 C.3        1 UNL1     0.0520
     16 C         -4.258693   0.76617   8.166904 C.3        1 UNL1     0.1322
     17 O         -3.50074   0.708878   6.938371 O.3        1 UNL1     -0.4828
     18 C         -5.618651   1.457212   8.041604 C.ar        1 UNL1     -0.0067
     19 C         -5.99895   2.018529   6.805274 C.ar        1 UNL1     -0.0516
     20 C         -7.214927   2.698802   6.668927 C.ar        1 UNL1     -0.0198
     21 C         -8.05414   2.830659   7.760788 C.ar        1 UNL1     0.1169
     22 C         -7.722626   2.259897   8.98274 C.ar        1 UNL1     -0.0198
     23 C         -6.515179   1.56366   9.11459 C.ar        1 UNL1     -0.0516
     24 O         -9.212579   3.532437   7.599766 O.3        1 UNL1     -0.5068
     25 O         -5.742685   -2.437006   8.288635 O.2        1 UNL1     -0.2917
     26 O         -5.780369   -3.397327   5.769728 O.3        1 UNL1     -0.5058
     27 O         -0.225448   -0.188117   2.542384 O.3        1 UNL1     -0.3648
     28 O         0.269402   -1.954104   -0.565444 O.3        1 UNL1     -0.3841
     29 O         -2.461104   0.348559   -0.260609 O.3        1 UNL1     -0.3863
     30 O         -2.439461   -3.325059   -0.196015 O.3        1 UNL1     -0.3829
     31 H         0.630921   -1.839141   1.822148 H        1 UNL1     0.0937
     32 H         0.0   0.0   0.0 H        1 UNL1     0.0671
     33 H         -1.865901   -1.205113   -1.407595 H        1 UNL1     0.0649
     34 H         -3.838195   -1.84681   0.069049 H        1 UNL1     0.0683
     35 H         -3.189423   -2.944044   2.164143 H        1 UNL1     0.1085
     36 H         -4.813231   -2.966591   3.448862 H        1 UNL1     0.0691
     37 H         -2.777878   0.694601   4.489637 H        1 UNL1     0.0691
     38 H         -3.323535   -0.994283   9.030843 H        1 UNL1     0.0385
     39 H         -4.886004   -0.585851   9.765973 H        1 UNL1     0.0385
     40 H         -3.663988   1.412511   8.826518 H        1 UNL1     0.0789
     41 H         -5.353594   1.936579   5.935533 H        1 UNL1     0.0623
     42 H         -7.491477   3.137531   5.713391 H        1 UNL1     0.0654
     43 H         -8.379393   2.344203   9.840329 H        1 UNL1     0.0654
     44 H         -6.293052   1.121411   10.080986 H        1 UNL1     0.0623
     45 H         -9.958552   2.940746   7.789879 H        1 UNL1     0.2921
     46 H         -5.375014   -3.909514   6.487198 H        1 UNL1     0.2922
     47 H         0.517077   0.365887   2.263825 H        1 UNL1     0.2126
     48 H         1.202268   -1.887781   -0.284206 H        1 UNL1     0.2101
     49 H         -2.022914   0.93075   -0.901576 H        1 UNL1     0.2100
     50 H         -2.673105   -3.341108   -1.147259 H        1 UNL1     0.2102
@<TRIPOS>BOND
     1     1     2    1
     2     1     6    1
     3     2     3    1
     4     3     4    1
     5     3    29    1
     6     3    33    1
     7     4     5    1
     8     5     6    1
     9     5     7    1
    10     5    35    1
    11     7     8    1
    12     8     9   ar
    13     8    13   ar
    14     9    10   ar
    15     9    36    1
    16    10    11   ar
    17    10    26    1
    18    11    12   ar
    19    11    14    1
    20    12    13   ar
    21    12    17    1
    22    13    37    1
    23    14    15    1
    24    14    25    2
    25    15    16    1
    26    15    38    1
    27    15    39    1
    28    16    17    1
    29    16    18    1
    30    16    40    1
    31    18    19   ar
    32    18    23   ar
    33    19    20   ar
    34    19    41    1
    35    20    21   ar
    36    20    42    1
    37    21    22   ar
    38    21    24    1
    39    22    23   ar
    40    22    43    1
    41    23    44    1
    42    24    45    1
    43    26    46    1
    44    27    47    1
    45    28    48    1
    46    29    49    1
    47    30    50    1
    48     1    31    1
    49     1    27    1
    50     2    32    1
    51     2    28    1
    52     4    34    1
    53     4    30    1
