@<TRIPOS>MOLECULE
*****
 50 53 0 0 0
SMALL
GASTEIGER

@<TRIPOS>ATOM
     1 C         0.912265   0.035685   1.984264 C.3        1 UNL1     0.1889
     2 C         -0.325515   0.022241   1.047429 C.3        1 UNL1     0.1342
     3 C         -1.293241   1.198812   1.246551 C.3        1 UNL1     0.1174
     4 C         -1.39211   1.64526   2.707382 C.3        1 UNL1     0.1456
     5 C         -0.0125   1.786658   3.375997 C.3        1 UNL1     0.2326
     6 O         0.698475   0.553854   3.288944 O.3        1 UNL1     -0.3076
     7 O         0.744977   2.911906   2.894992 O.3        1 UNL1     -0.4605
     8 C         1.596417   3.505107   3.809699 C.ar        1 UNL1     0.1310
     9 C         1.267748   3.83053   5.130069 C.ar        1 UNL1     0.0226
     10 C         2.207881   4.415398   5.986796 C.ar        1 UNL1     0.1343
     11 C         3.507904   4.667433   5.550609 C.ar        1 UNL1     0.1007
     12 C         3.836016   4.384612   4.222024 C.ar        1 UNL1     0.1389
     13 C         2.889765   3.79897   3.360014 C.ar        1 UNL1     0.0229
     14 C         4.564764   5.206148   6.437732 C.2        1 UNL1     0.1740
     15 C         5.953245   5.204325   5.868816 C.3        1 UNL1     0.0520
     16 C         5.874537   5.614314   4.404687 C.3        1 UNL1     0.1322
     17 O         5.052247   4.691201   3.657177 O.3        1 UNL1     -0.4828
     18 C         5.523018   7.089292   4.195883 C.ar        1 UNL1     -0.0067
     19 C         4.506754   7.436393   3.282132 C.ar        1 UNL1     -0.0516
     20 C         4.192802   8.777663   3.032348 C.ar        1 UNL1     -0.0198
     21 C         4.891247   9.779013   3.682962 C.ar        1 UNL1     0.1169
     22 C         5.874512   9.468162   4.613231 C.ar        1 UNL1     -0.0198
     23 C         6.176038   8.126668   4.87692 C.ar        1 UNL1     -0.0516
     24 O         4.583579   11.074228   3.386047 O.3        1 UNL1     -0.5068
     25 O         4.359416   5.562091   7.595152 O.2        1 UNL1     -0.2917
     26 O         1.823503   4.709443   7.262482 O.3        1 UNL1     -0.5058
     27 O         2.070405   0.592358   1.38292 O.3        1 UNL1     -0.3648
     28 O         -1.067092   -1.187932   1.288782 O.3        1 UNL1     -0.3841
     29 O         -0.974445   2.273191   0.359865 O.3        1 UNL1     -0.3863
     30 O         -2.169221   0.678222   3.446724 O.3        1 UNL1     -0.3829
     31 H         1.179092   -1.011298   2.16512 H        1 UNL1     0.0937
     32 H         0.0   0.0   -0.0 H        1 UNL1     0.0671
     33 H         -2.29607   0.862324   0.948507 H        1 UNL1     0.0649
     34 H         -1.924573   2.600669   2.771237 H        1 UNL1     0.0683
     35 H         -0.247281   1.945287   4.435994 H        1 UNL1     0.1085
     36 H         0.29106   3.608462   5.545867 H        1 UNL1     0.0691
     37 H         3.169809   3.589517   2.329869 H        1 UNL1     0.0691
     38 H         6.352919   4.190066   5.974011 H        1 UNL1     0.0385
     39 H         6.582391   5.882437   6.455432 H        1 UNL1     0.0385
     40 H         6.880092   5.492271   3.979852 H        1 UNL1     0.0789
     41 H         3.950172   6.66914   2.751858 H        1 UNL1     0.0623
     42 H         3.415179   9.032726   2.316628 H        1 UNL1     0.0654
     43 H         6.417304   10.244226   5.13955 H        1 UNL1     0.0654
     44 H         6.942659   7.920111   5.617508 H        1 UNL1     0.0623
     45 H         4.756122   11.221778   2.442027 H        1 UNL1     0.2921
     46 H         2.417124   4.266732   7.889406 H        1 UNL1     0.2922
     47 H         2.276662   0.127545   0.559957 H        1 UNL1     0.2126
     48 H         -0.477879   -1.92931   1.050202 H        1 UNL1     0.2101
     49 H         -1.18688   2.021737   -0.553062 H        1 UNL1     0.2100
     50 H         -3.086836   0.703781   3.10461 H        1 UNL1     0.2102
@<TRIPOS>BOND
     1     1     2    1
     2     1     6    1
     3     2     3    1
     4     3     4    1
     5     3    29    1
     6     3    33    1
     7     4     5    1
     8     5     6    1
     9     5     7    1
    10     5    35    1
    11     7     8    1
    12     8     9   ar
    13     8    13   ar
    14     9    10   ar
    15     9    36    1
    16    10    11   ar
    17    10    26    1
    18    11    12   ar
    19    11    14    1
    20    12    13   ar
    21    12    17    1
    22    13    37    1
    23    14    15    1
    24    14    25    2
    25    15    16    1
    26    15    38    1
    27    15    39    1
    28    16    17    1
    29    16    18    1
    30    16    40    1
    31    18    19   ar
    32    18    23   ar
    33    19    20   ar
    34    19    41    1
    35    20    21   ar
    36    20    42    1
    37    21    22   ar
    38    21    24    1
    39    22    23   ar
    40    22    43    1
    41    23    44    1
    42    24    45    1
    43    26    46    1
    44    27    47    1
    45    28    48    1
    46    29    49    1
    47    30    50    1
    48     1    31    1
    49     1    27    1
    50     2    32    1
    51     2    28    1
    52     4    34    1
    53     4    30    1
