@<TRIPOS>MOLECULE
*****
 50 53 0 0 0
SMALL
GASTEIGER

@<TRIPOS>ATOM
     1 C         -0.200775   -1.273267   1.763316 C.3        1 UNL1     0.1889
     2 C         -0.354776   -1.009706   0.241226 C.3        1 UNL1     0.1342
     3 C         -1.783202   -1.181074   -0.297938 C.3        1 UNL1     0.1174
     4 C         -2.554491   -2.298214   0.40933 C.3        1 UNL1     0.1456
     5 C         -2.415566   -2.232982   1.94126 C.3        1 UNL1     0.2326
     6 O         -1.038386   -2.282832   2.306991 O.3        1 UNL1     -0.3076
     7 O         -3.118726   -1.125923   2.533972 O.3        1 UNL1     -0.4605
     8 C         -3.613635   -1.334675   3.808733 C.ar        1 UNL1     0.1310
     9 C         -4.310998   -2.471575   4.231156 C.ar        1 UNL1     0.0226
     10 C         -4.758183   -2.597183   5.551819 C.ar        1 UNL1     0.1343
     11 C         -4.497792   -1.598395   6.489081 C.ar        1 UNL1     0.1007
     12 C         -3.838195   -0.440262   6.06903 C.ar        1 UNL1     0.1389
     13 C         -3.390972   -0.313046   4.740407 C.ar        1 UNL1     0.0229
     14 C         -4.873517   -1.716312   7.917045 C.2        1 UNL1     0.1740
     15 C         -4.321424   -0.655543   8.823418 C.3        1 UNL1     0.0520
     16 C         -4.396697   0.68248   8.100932 C.3        1 UNL1     0.1322
     17 O         -3.624981   0.650153   6.88008 O.3        1 UNL1     -0.4828
     18 C         -5.822382   1.214499   7.936306 C.ar        1 UNL1     -0.0067
     19 C         -6.249253   1.671984   6.6727 C.ar        1 UNL1     -0.0516
     20 C         -7.530539   2.20848   6.498222 C.ar        1 UNL1     -0.0198
     21 C         -8.389789   2.29953   7.578604 C.ar        1 UNL1     0.1169
     22 C         -8.010243   1.82667   8.828079 C.ar        1 UNL1     -0.0198
     23 C         -6.735659   1.273182   8.998792 C.ar        1 UNL1     -0.0516
     24 O         -9.615974   2.862483   7.378714 O.3        1 UNL1     -0.5068
     25 O         -5.525046   -2.653996   8.369533 O.2        1 UNL1     -0.2917
     26 O         -5.433448   -3.730633   5.899515 O.3        1 UNL1     -0.5058
     27 O         -0.228627   -0.091237   2.547418 O.3        1 UNL1     -0.3648
     28 O         0.485634   -1.937625   -0.469678 O.3        1 UNL1     -0.3841
     29 O         -2.481727   0.065563   -0.288408 O.3        1 UNL1     -0.3863
     30 O         -2.061756   -3.576636   -0.04733 O.3        1 UNL1     -0.3829
     31 H         0.809066   -1.671272   1.911279 H        1 UNL1     0.0937
     32 H         0.0   0.0   0.0 H        1 UNL1     0.0671
     33 H         -1.710028   -1.466434   -1.356681 H        1 UNL1     0.0649
     34 H         -3.615339   -2.248766   0.139963 H        1 UNL1     0.0683
     35 H         -2.871807   -3.168544   2.288316 H        1 UNL1     0.1085
     36 H         -4.496089   -3.307198   3.565126 H        1 UNL1     0.0691
     37 H         -2.88084   0.599062   4.438221 H        1 UNL1     0.0691
     38 H         -3.28435   -0.922777   9.052742 H        1 UNL1     0.0385
     39 H         -4.889084   -0.652785   9.760185 H        1 UNL1     0.0385
     40 H         -3.882233   1.420221   8.731475 H        1 UNL1     0.0789
     41 H         -5.590306   1.619854   5.810886 H        1 UNL1     0.0623
     42 H         -7.84372   2.568818   5.521449 H        1 UNL1     0.0654
     43 H         -8.68067   1.879321   9.677588 H        1 UNL1     0.0654
     44 H         -6.4763   0.903931   9.986329 H        1 UNL1     0.0623
     45 H         -9.488288   3.775506   7.07408 H        1 UNL1     0.2921
     46 H         -4.9824   -4.160658   6.643186 H        1 UNL1     0.2922
     47 H         0.452017   0.526606   2.245999 H        1 UNL1     0.2126
     48 H         1.402967   -1.756818   -0.187647 H        1 UNL1     0.2101
     49 H         -2.103162   0.661072   -0.95463 H        1 UNL1     0.2100
     50 H         -2.282924   -3.662978   -0.997773 H        1 UNL1     0.2102
@<TRIPOS>BOND
     1     1     2    1
     2     1     6    1
     3     2     3    1
     4     3     4    1
     5     3    29    1
     6     3    33    1
     7     4     5    1
     8     5     6    1
     9     5     7    1
    10     5    35    1
    11     7     8    1
    12     8     9   ar
    13     8    13   ar
    14     9    10   ar
    15     9    36    1
    16    10    11   ar
    17    10    26    1
    18    11    12   ar
    19    11    14    1
    20    12    13   ar
    21    12    17    1
    22    13    37    1
    23    14    15    1
    24    14    25    2
    25    15    16    1
    26    15    38    1
    27    15    39    1
    28    16    17    1
    29    16    18    1
    30    16    40    1
    31    18    19   ar
    32    18    23   ar
    33    19    20   ar
    34    19    41    1
    35    20    21   ar
    36    20    42    1
    37    21    22   ar
    38    21    24    1
    39    22    23   ar
    40    22    43    1
    41    23    44    1
    42    24    45    1
    43    26    46    1
    44    27    47    1
    45    28    48    1
    46    29    49    1
    47    30    50    1
    48     1    31    1
    49     1    27    1
    50     2    32    1
    51     2    28    1
    52     4    34    1
    53     4    30    1
