@<TRIPOS>MOLECULE
*****
 50 53 0 0 0
SMALL
GASTEIGER

@<TRIPOS>ATOM
     1 C         -1.388985   -1.397465   -0.942665 C.3        1 UNL1     0.1889
     2 C         -0.917322   0.041377   -0.600309 C.3        1 UNL1     0.1342
     3 C         -1.958542   0.899792   0.134163 C.3        1 UNL1     0.1174
     4 C         -3.392448   0.606197   -0.313979 C.3        1 UNL1     0.1456
     5 C         -3.691516   -0.902417   -0.384726 C.3        1 UNL1     0.2326
     6 O         -2.765429   -1.54097   -1.260787 O.3        1 UNL1     -0.3076
     7 O         -3.774502   -1.531532   0.907036 O.3        1 UNL1     -0.4605
     8 C         -4.651791   -2.596331   1.007505 C.ar        1 UNL1     0.1310
     9 C         -5.958777   -2.619279   0.508945 C.ar        1 UNL1     0.0226
     10 C         -6.765829   -3.754965   0.646009 C.ar        1 UNL1     0.1343
     11 C         -6.276777   -4.90477   1.26457 C.ar        1 UNL1     0.1007
     12 C         -4.987384   -4.87982   1.802741 C.ar        1 UNL1     0.1389
     13 C         -4.177023   -3.736861   1.66713 C.ar        1 UNL1     0.0229
     14 C         -7.056554   -6.160383   1.362228 C.2        1 UNL1     0.1740
     15 C         -6.299356   -7.358216   1.855581 C.3        1 UNL1     0.0520
     16 C         -5.381325   -6.915584   2.986622 C.3        1 UNL1     0.1322
     17 O         -4.444879   -5.916664   2.525865 O.3        1 UNL1     -0.4828
     18 C         -6.123201   -6.544244   4.272876 C.ar        1 UNL1     -0.0067
     19 C         -5.38943   -6.32428   5.456687 C.ar        1 UNL1     -0.0516
     20 C         -6.040032   -6.029691   6.660804 C.ar        1 UNL1     -0.0198
     21 C         -7.421228   -5.959659   6.695727 C.ar        1 UNL1     0.1169
     22 C         -8.169584   -6.138363   5.539498 C.ar        1 UNL1     -0.0198
     23 C         -7.518262   -6.414741   4.33142 C.ar        1 UNL1     -0.0516
     24 O         -8.021733   -5.707976   7.894247 O.3        1 UNL1     -0.5068
     25 O         -8.22403   -6.261565   0.994469 O.2        1 UNL1     -0.2917
     26 O         -8.031687   -3.712213   0.138701 O.3        1 UNL1     -0.5058
     27 O         -0.964788   -2.370467   -0.001331 O.3        1 UNL1     -0.3648
     28 O         -0.592572   0.719205   -1.828231 O.3        1 UNL1     -0.3841
     29 O         -1.789862   0.800713   1.549741 O.3        1 UNL1     -0.3863
     30 O         -3.608303   1.18385   -1.619894 O.3        1 UNL1     -0.3829
     31 H         -0.88077   -1.680719   -1.87087 H        1 UNL1     0.0937
     32 H         0.0   0.0   0.0 H        1 UNL1     0.0671
     33 H         -1.758293   1.952278   -0.110573 H        1 UNL1     0.0649
     34 H         -4.103106   1.084115   0.369367 H        1 UNL1     0.0683
     35 H         -4.675384   -0.954684   -0.867583 H        1 UNL1     0.1085
     36 H         -6.37793   -1.777383   -0.031095 H        1 UNL1     0.0691
     37 H         -3.177219   -3.742449   2.095913 H        1 UNL1     0.0691
     38 H         -5.724164   -7.756536   1.012952 H        1 UNL1     0.0385
     39 H         -7.011659   -8.125827   2.176792 H        1 UNL1     0.0385
     40 H         -4.754685   -7.778031   3.251247 H        1 UNL1     0.0789
     41 H         -4.304882   -6.382631   5.457434 H        1 UNL1     0.0623
     42 H         -5.463703   -5.87386   7.569415 H        1 UNL1     0.0654
     43 H         -9.250872   -6.070867   5.552506 H        1 UNL1     0.0654
     44 H         -8.133692   -6.538194   3.445502 H        1 UNL1     0.0623
     45 H         -7.395692   -5.927776   8.603103 H        1 UNL1     0.2921
     46 H         -8.252064   -4.571683   -0.253927 H        1 UNL1     0.2922
     47 H         -1.399807   -3.216804   -0.175494 H        1 UNL1     0.2126
     48 H         0.358998   0.934671   -1.785553 H        1 UNL1     0.2101
     49 H         -2.429045   0.168274   1.914789 H        1 UNL1     0.2100
     50 H         -2.751323   1.184816   -2.094548 H        1 UNL1     0.2102
@<TRIPOS>BOND
     1     1     2    1
     2     1     6    1
     3     2     3    1
     4     3     4    1
     5     3    29    1
     6     3    33    1
     7     4     5    1
     8     5     6    1
     9     5     7    1
    10     5    35    1
    11     7     8    1
    12     8     9   ar
    13     8    13   ar
    14     9    10   ar
    15     9    36    1
    16    10    11   ar
    17    10    26    1
    18    11    12   ar
    19    11    14    1
    20    12    13   ar
    21    12    17    1
    22    13    37    1
    23    14    15    1
    24    14    25    2
    25    15    16    1
    26    15    38    1
    27    15    39    1
    28    16    17    1
    29    16    18    1
    30    16    40    1
    31    18    19   ar
    32    18    23   ar
    33    19    20   ar
    34    19    41    1
    35    20    21   ar
    36    20    42    1
    37    21    22   ar
    38    21    24    1
    39    22    23   ar
    40    22    43    1
    41    23    44    1
    42    24    45    1
    43    26    46    1
    44    27    47    1
    45    28    48    1
    46    29    49    1
    47    30    50    1
    48     1    31    1
    49     1    27    1
    50     2    32    1
    51     2    28    1
    52     4    34    1
    53     4    30    1
