@<TRIPOS>MOLECULE
*****
 50 53 0 0 0
SMALL
GASTEIGER

@<TRIPOS>ATOM
     1 C         0.614971   -0.113504   2.092781 C.3        1 UNL1     0.1889
     2 C         -0.471478   -0.114753   0.983922 C.3        1 UNL1     0.1342
     3 C         -1.556545   0.960485   1.148107 C.3        1 UNL1     0.1174
     4 C         -1.900171   1.237957   2.613729 C.3        1 UNL1     0.1456
     5 C         -0.646987   1.405322   3.492297 C.3        1 UNL1     0.2326
     6 O         0.173921   0.243686   3.394428 O.3        1 UNL1     -0.3076
     7 O         0.07001   2.627695   3.241217 O.3        1 UNL1     -0.4605
     8 C         -0.682207   3.788277   3.268541 C.ar        1 UNL1     0.1310
     9 C         -1.2944   4.383436   2.160252 C.ar        1 UNL1     0.0226
     10 C         -2.052286   5.552966   2.293337 C.ar        1 UNL1     0.1343
     11 C         -2.23627   6.143078   3.543041 C.ar        1 UNL1     0.1007
     12 C         -1.596019   5.581009   4.650714 C.ar        1 UNL1     0.1389
     13 C         -0.831844   4.406541   4.51621 C.ar        1 UNL1     0.0229
     14 C         -3.095522   7.331076   3.753991 C.2        1 UNL1     0.1740
     15 C         -3.358533   7.696222   5.185439 C.3        1 UNL1     0.0520
     16 C         -2.069793   7.510789   5.974567 C.3        1 UNL1     0.1322
     17 O         -1.620329   6.13945   5.907623 O.3        1 UNL1     -0.4828
     18 C         -0.992669   8.548044   5.648025 C.ar        1 UNL1     -0.0067
     19 C         -0.178317   9.050373   6.683742 C.ar        1 UNL1     -0.0516
     20 C         0.784123   10.034305   6.427717 C.ar        1 UNL1     -0.0198
     21 C         0.936591   10.528262   5.144522 C.ar        1 UNL1     0.1169
     22 C         0.172581   10.029487   4.097454 C.ar        1 UNL1     -0.0198
     23 C         -0.777213   9.032354   4.349789 C.ar        1 UNL1     -0.0516
     24 O         1.857919   11.513085   4.940371 O.3        1 UNL1     -0.5068
     25 O         -3.635433   7.946196   2.838235 O.2        1 UNL1     -0.2917
     26 O         -2.622199   6.083688   1.173017 O.3        1 UNL1     -0.5058
     27 O         1.793692   0.587038   1.728579 O.3        1 UNL1     -0.3648
     28 O         -1.131399   -1.394253   0.993389 O.3        1 UNL1     -0.3841
     29 O         -1.210126   2.144671   0.427114 O.3        1 UNL1     -0.3863
     30 O         -2.686969   0.143086   3.131315 O.3        1 UNL1     -0.3829
     31 H         0.943725   -1.15192   2.209794 H        1 UNL1     0.0937
     32 H         0.0   0.0   0.0 H        1 UNL1     0.0671
     33 H         -2.473756   0.586768   0.671893 H        1 UNL1     0.0649
     34 H         -2.517578   2.13994   2.688805 H        1 UNL1     0.0683
     35 H         -1.042675   1.430985   4.515357 H        1 UNL1     0.1085
     36 H         -1.235596   3.942511   1.171188 H        1 UNL1     0.0691
     37 H         -0.342639   3.98944   5.39382 H        1 UNL1     0.0691
     38 H         -4.147722   7.033691   5.556599 H        1 UNL1     0.0385
     39 H         -3.727375   8.726586   5.231087 H        1 UNL1     0.0385
     40 H         -2.313389   7.668461   7.033964 H        1 UNL1     0.0789
     41 H         -0.284761   8.685553   7.701203 H        1 UNL1     0.0623
     42 H         1.397785   10.422151   7.237041 H        1 UNL1     0.0654
     43 H         0.29418   10.398471   3.086032 H        1 UNL1     0.0654
     44 H         -1.349268   8.658217   3.506213 H        1 UNL1     0.0623
     45 H         1.395787   12.302908   4.615826 H        1 UNL1     0.2921
     46 H         -3.490408   6.454763   1.396466 H        1 UNL1     0.2922
     47 H         1.719388   0.919375   0.823101 H        1 UNL1     0.2126
     48 H         -1.304837   -1.626406   0.060781 H        1 UNL1     0.2101
     49 H         -0.569769   1.931085   -0.270107 H        1 UNL1     0.2100
     50 H         -2.765045   -0.532052   2.425761 H        1 UNL1     0.2102
@<TRIPOS>BOND
     1     1     2    1
     2     1     6    1
     3     2     3    1
     4     3     4    1
     5     3    29    1
     6     3    33    1
     7     4     5    1
     8     5     6    1
     9     5     7    1
    10     5    35    1
    11     7     8    1
    12     8     9   ar
    13     8    13   ar
    14     9    10   ar
    15     9    36    1
    16    10    11   ar
    17    10    26    1
    18    11    12   ar
    19    11    14    1
    20    12    13   ar
    21    12    17    1
    22    13    37    1
    23    14    15    1
    24    14    25    2
    25    15    16    1
    26    15    38    1
    27    15    39    1
    28    16    17    1
    29    16    18    1
    30    16    40    1
    31    18    19   ar
    32    18    23   ar
    33    19    20   ar
    34    19    41    1
    35    20    21   ar
    36    20    42    1
    37    21    22   ar
    38    21    24    1
    39    22    23   ar
    40    22    43    1
    41    23    44    1
    42    24    45    1
    43    26    46    1
    44    27    47    1
    45    28    48    1
    46    29    49    1
    47    30    50    1
    48     1    31    1
    49     1    27    1
    50     2    32    1
    51     2    28    1
    52     4    34    1
    53     4    30    1
