@<TRIPOS>MOLECULE
*****
 50 53 0 0 0
SMALL
GASTEIGER

@<TRIPOS>ATOM
     1 C         1.316326   1.512008   0.867136 C.3        1 UNL1     0.1889
     2 C         0.107213   0.541721   0.947948 C.3        1 UNL1     0.1342
     3 C         -1.230684   1.211976   1.296165 C.3        1 UNL1     0.1174
     4 C         -1.071895   2.38542   2.266182 C.3        1 UNL1     0.1456
     5 C         0.072275   3.333542   1.863313 C.3        1 UNL1     0.2326
     6 O         1.295666   2.607165   1.770794 O.3        1 UNL1     -0.3076
     7 O         -0.214768   4.110694   0.686469 O.3        1 UNL1     -0.4605
     8 C         -0.645768   5.406668   0.906056 C.ar        1 UNL1     0.1310
     9 C         -1.891889   5.92066   0.531495 C.ar        1 UNL1     0.0226
     10 C         -2.242792   7.246068   0.81445 C.ar        1 UNL1     0.1343
     11 C         -1.364371   8.083536   1.500645 C.ar        1 UNL1     0.1007
     12 C         -0.101264   7.59389   1.843561 C.ar        1 UNL1     0.1389
     13 C         0.252339   6.261956   1.556597 C.ar        1 UNL1     0.0229
     14 C         -1.715846   9.466152   1.899384 C.2        1 UNL1     0.1740
     15 C         -0.744153   10.143   2.820925 C.3        1 UNL1     0.0520
     16 C         0.668257   9.790881   2.374755 C.3        1 UNL1     0.1322
     17 O         0.880576   8.362754   2.424169 O.3        1 UNL1     -0.4828
     18 C         1.079366   10.448042   1.054962 C.ar        1 UNL1     -0.0067
     19 C         1.273584   11.843829   1.007306 C.ar        1 UNL1     -0.0516
     20 C         1.603518   12.482554   -0.194 C.ar        1 UNL1     -0.0198
     21 C         1.73459   11.739286   -1.353397 C.ar        1 UNL1     0.1169
     22 C         1.582393   10.358996   -1.331623 C.ar        1 UNL1     -0.0198
     23 C         1.270597   9.717757   -0.126778 C.ar        1 UNL1     -0.0516
     24 O         2.019419   12.400579   -2.511829 O.3        1 UNL1     -0.5068
     25 O         -2.765439   10.016615   1.577158 O.2        1 UNL1     -0.2917
     26 O         -3.472968   7.686037   0.421158 O.3        1 UNL1     -0.5058
     27 O         1.619001   1.929269   -0.454631 O.3        1 UNL1     -0.3648
     28 O         0.374961   -0.436589   1.969675 O.3        1 UNL1     -0.3841
     29 O         -1.943763   1.567218   0.109804 O.3        1 UNL1     -0.3863
     30 O         -0.805725   1.873091   3.58995 O.3        1 UNL1     -0.3829
     31 H         2.197573   0.94023   1.177865 H        1 UNL1     0.0937
     32 H         -0.0   0.0   0.0 H        1 UNL1     0.0671
     33 H         -1.858614   0.464811   1.801308 H        1 UNL1     0.0649
     34 H         -2.00779   2.952128   2.32399 H        1 UNL1     0.0683
     35 H         0.168048   4.011731   2.720498 H        1 UNL1     0.1085
     36 H         -2.640169   5.30433   0.04535 H        1 UNL1     0.0691
     37 H         1.242232   5.90535   1.83307 H        1 UNL1     0.0691
     38 H         -0.940458   9.778489   3.834889 H        1 UNL1     0.0385
     39 H         -0.926456   11.22294   2.804401 H        1 UNL1     0.0385
     40 H         1.356492   10.197003   3.128359 H        1 UNL1     0.0789
     41 H         1.167469   12.450723   1.901772 H        1 UNL1     0.0623
     42 H         1.739023   13.560962   -0.220226 H        1 UNL1     0.0654
     43 H         1.69758   9.765502   -2.230737 H        1 UNL1     0.0654
     44 H         1.169294   8.636889   -0.144328 H        1 UNL1     0.0623
     45 H         1.407727   13.149937   -2.595562 H        1 UNL1     0.2921
     46 H         -3.855934   7.055316   -0.208874 H        1 UNL1     0.2922
     47 H         2.488322   1.597712   -0.719604 H        1 UNL1     0.2126
     48 H         1.244575   -0.21056   2.352317 H        1 UNL1     0.2101
     49 H         -2.793906   1.099938   0.083356 H        1 UNL1     0.2100
     50 H         -1.484979   1.197275   3.793906 H        1 UNL1     0.2102
@<TRIPOS>BOND
     1     1     2    1
     2     1     6    1
     3     2     3    1
     4     3     4    1
     5     3    29    1
     6     3    33    1
     7     4     5    1
     8     5     6    1
     9     5     7    1
    10     5    35    1
    11     7     8    1
    12     8     9   ar
    13     8    13   ar
    14     9    10   ar
    15     9    36    1
    16    10    11   ar
    17    10    26    1
    18    11    12   ar
    19    11    14    1
    20    12    13   ar
    21    12    17    1
    22    13    37    1
    23    14    15    1
    24    14    25    2
    25    15    16    1
    26    15    38    1
    27    15    39    1
    28    16    17    1
    29    16    18    1
    30    16    40    1
    31    18    19   ar
    32    18    23   ar
    33    19    20   ar
    34    19    41    1
    35    20    21   ar
    36    20    42    1
    37    21    22   ar
    38    21    24    1
    39    22    23   ar
    40    22    43    1
    41    23    44    1
    42    24    45    1
    43    26    46    1
    44    27    47    1
    45    28    48    1
    46    29    49    1
    47    30    50    1
    48     1    31    1
    49     1    27    1
    50     2    32    1
    51     2    28    1
    52     4    34    1
    53     4    30    1
