@<TRIPOS>MOLECULE
*****
 50 53 0 0 0
SMALL
GASTEIGER

@<TRIPOS>ATOM
     1 C         -0.390873   -1.380864   1.646583 C.3        1 UNL1     0.1889
     2 C         -0.492366   -0.968291   0.153458 C.3        1 UNL1     0.1342
     3 C         -1.92546   -0.894306   -0.395388 C.3        1 UNL1     0.1174
     4 C         -2.849675   -1.951497   0.213948 C.3        1 UNL1     0.1456
     5 C         -2.718075   -2.038417   1.745447 C.3        1 UNL1     0.2326
     6 O         -1.364414   -2.308669   2.102427 O.3        1 UNL1     -0.3076
     7 O         -3.268355   -0.900434   2.433565 O.3        1 UNL1     -0.4605
     8 C         -4.58808   -1.01315   2.832501 C.ar        1 UNL1     0.1310
     9 C         -5.635592   -1.495877   2.040672 C.ar        1 UNL1     0.0226
     10 C         -6.939249   -1.587805   2.5426 C.ar        1 UNL1     0.1343
     11 C         -7.222765   -1.221204   3.857538 C.ar        1 UNL1     0.1007
     12 C         -6.193054   -0.699159   4.644906 C.ar        1 UNL1     0.1389
     13 C         -4.882846   -0.604347   4.139143 C.ar        1 UNL1     0.0229
     14 C         -8.564638   -1.376436   4.465347 C.2        1 UNL1     0.1740
     15 C         -8.637548   -1.144261   5.945999 C.3        1 UNL1     0.0520
     16 C         -7.753634   0.046357   6.291082 C.3        1 UNL1     0.1322
     17 O         -6.381883   -0.207514   5.915692 O.3        1 UNL1     -0.4828
     18 C         -8.30734   1.38699   5.802374 C.ar        1 UNL1     -0.0067
     19 C         -9.412531   1.402036   4.926851 C.ar        1 UNL1     -0.0516
     20 C         -9.913938   2.608417   4.423663 C.ar        1 UNL1     -0.0198
     21 C         -9.315713   3.803277   4.781803 C.ar        1 UNL1     0.1169
     22 C         -8.246959   3.823213   5.668486 C.ar        1 UNL1     -0.0198
     23 C         -7.756998   2.61829   6.186324 C.ar        1 UNL1     -0.0516
     24 O         -9.807644   4.955277   4.242081 O.3        1 UNL1     -0.5068
     25 O         -9.552467   -1.748195   3.837275 O.2        1 UNL1     -0.2917
     26 O         -7.915887   -2.065974   1.718513 O.3        1 UNL1     -0.5058
     27 O         -0.263848   -0.278345   2.530383 O.3        1 UNL1     -0.3648
     28 O         0.219605   -1.938202   -0.63716 O.3        1 UNL1     -0.3841
     29 O         -2.446295   0.431079   -0.276144 O.3        1 UNL1     -0.3863
     30 O         -2.53267   -3.24135   -0.353041 O.3        1 UNL1     -0.3829
     31 H         0.553276   -1.925312   1.75721 H        1 UNL1     0.0937
     32 H         0.0   0.0   0.0 H        1 UNL1     0.0671
     33 H         -1.881819   -1.094602   -1.475063 H        1 UNL1     0.0649
     34 H         -3.89101   -1.733486   -0.047766 H        1 UNL1     0.0683
     35 H         -3.301795   -2.928717   2.010995 H        1 UNL1     0.1085
     36 H         -5.469529   -1.849122   1.028861 H        1 UNL1     0.0691
     37 H         -4.099175   -0.19341   4.771981 H        1 UNL1     0.0691
     38 H         -8.284771   -2.054902   6.441788 H        1 UNL1     0.0385
     39 H         -9.682063   -0.981389   6.232775 H        1 UNL1     0.0385
     40 H         -7.728607   0.124229   7.38645 H        1 UNL1     0.0789
     41 H         -9.893975   0.476957   4.623387 H        1 UNL1     0.0623
     42 H         -10.759201   2.606043   3.739897 H        1 UNL1     0.0654
     43 H         -7.780551   4.754352   5.967407 H        1 UNL1     0.0654
     44 H         -6.927518   2.671903   6.884846 H        1 UNL1     0.0623
     45 H         -10.537051   5.268785   4.801003 H        1 UNL1     0.2921
     46 H         -8.625692   -1.40882   1.642776 H        1 UNL1     0.2922
     47 H         -1.137823   0.041978   2.793863 H        1 UNL1     0.2126
     48 H         -0.329818   -2.114396   -1.425083 H        1 UNL1     0.2101
     49 H         -3.002234   0.497114   0.516551 H        1 UNL1     0.2100
     50 H         -2.005846   -3.739162   0.306013 H        1 UNL1     0.2102
@<TRIPOS>BOND
     1     1     2    1
     2     1     6    1
     3     2     3    1
     4     3     4    1
     5     3    29    1
     6     3    33    1
     7     4     5    1
     8     5     6    1
     9     5     7    1
    10     5    35    1
    11     7     8    1
    12     8     9   ar
    13     8    13   ar
    14     9    10   ar
    15     9    36    1
    16    10    11   ar
    17    10    26    1
    18    11    12   ar
    19    11    14    1
    20    12    13   ar
    21    12    17    1
    22    13    37    1
    23    14    15    1
    24    14    25    2
    25    15    16    1
    26    15    38    1
    27    15    39    1
    28    16    17    1
    29    16    18    1
    30    16    40    1
    31    18    19   ar
    32    18    23   ar
    33    19    20   ar
    34    19    41    1
    35    20    21   ar
    36    20    42    1
    37    21    22   ar
    38    21    24    1
    39    22    23   ar
    40    22    43    1
    41    23    44    1
    42    24    45    1
    43    26    46    1
    44    27    47    1
    45    28    48    1
    46    29    49    1
    47    30    50    1
    48     1    31    1
    49     1    27    1
    50     2    32    1
    51     2    28    1
    52     4    34    1
    53     4    30    1
