@<TRIPOS>MOLECULE
*****
 50 53 0 0 0
SMALL
GASTEIGER

@<TRIPOS>ATOM
     1 C         -0.326089   -1.366196   1.672716 C.3        1 UNL1     0.1889
     2 C         -0.462454   -0.97923   0.175518 C.3        1 UNL1     0.1342
     3 C         -1.905456   -0.953587   -0.351314 C.3        1 UNL1     0.1174
     4 C         -2.789915   -2.02684   0.2882 C.3        1 UNL1     0.1456
     5 C         -2.632028   -2.086896   1.818503 C.3        1 UNL1     0.2326
     6 O         -1.265887   -2.313824   2.157666 O.3        1 UNL1     -0.3076
     7 O         -3.203321   -0.95445   2.498586 O.3        1 UNL1     -0.4605
     8 C         -3.715043   -1.199785   3.760124 C.ar        1 UNL1     0.1310
     9 C         -4.535683   -2.278785   4.105967 C.ar        1 UNL1     0.0226
     10 C         -4.990424   -2.450526   5.418833 C.ar        1 UNL1     0.1343
     11 C         -4.615686   -1.559699   6.423741 C.ar        1 UNL1     0.1007
     12 C         -3.830151   -0.455571   6.082244 C.ar        1 UNL1     0.1389
     13 C         -3.375213   -0.281652   4.761557 C.ar        1 UNL1     0.0229
     14 C         -4.998247   -1.739837   7.843372 C.2        1 UNL1     0.1740
     15 C         -4.326747   -0.818256   8.818731 C.3        1 UNL1     0.0520
     16 C         -4.251794   0.569508   8.197079 C.3        1 UNL1     0.1322
     17 O         -3.492252   0.540717   6.968528 O.3        1 UNL1     -0.4828
     18 C         -5.608373   1.269865   8.087923 C.ar        1 UNL1     -0.0067
     19 C         -5.976716   1.880297   6.871407 C.ar        1 UNL1     -0.0516
     20 C         -7.189266   2.569799   6.751946 C.ar        1 UNL1     -0.0198
     21 C         -8.036901   2.662088   7.841361 C.ar        1 UNL1     0.1169
     22 C         -7.717255   2.042955   9.042752 C.ar        1 UNL1     -0.0198
     23 C         -6.513252   1.337709   9.157028 C.ar        1 UNL1     -0.0516
     24 O         -9.191643   3.373828   7.698544 O.3        1 UNL1     -0.5068
     25 O         -5.750657   -2.628849   8.233272 O.2        1 UNL1     -0.2917
     26 O         -5.788932   -3.523071   5.690157 O.3        1 UNL1     -0.5058
     27 O         -0.216374   -0.24733   2.538098 O.3        1 UNL1     -0.3648
     28 O         0.264113   -1.940723   -0.612097 O.3        1 UNL1     -0.3841
     29 O         -2.461475   0.35839   -0.243193 O.3        1 UNL1     -0.3863
     30 O         -2.44561   -3.315761   -0.264815 O.3        1 UNL1     -0.3829
     31 H         0.634627   -1.882338   1.77617 H        1 UNL1     0.0937
     32 H         0.0   0.0   0.0 H        1 UNL1     0.0671
     33 H         -1.873053   -1.168881   -1.428495 H        1 UNL1     0.0649
     34 H         -3.840933   -1.841966   0.04004 H        1 UNL1     0.0683
     35 H         -3.186234   -2.989031   2.106405 H        1 UNL1     0.1085
     36 H         -4.816313   -3.03653   3.382648 H        1 UNL1     0.0691
     37 H         -2.765755   0.58686   4.521264 H        1 UNL1     0.0691
     38 H         -3.326036   -1.217154   9.016177 H        1 UNL1     0.0385
     39 H         -4.887725   -0.820774   9.759516 H        1 UNL1     0.0385
     40 H         -3.655128   1.195695   8.874132 H        1 UNL1     0.0789
     41 H         -5.324574   1.829933   6.004329 H        1 UNL1     0.0623
     42 H         -7.45656   3.046421   5.812054 H        1 UNL1     0.0654
     43 H         -8.380702   2.096189   9.897688 H        1 UNL1     0.0654
     44 H         -6.300479   0.857345   10.107199 H        1 UNL1     0.0623
     45 H         -8.961018   4.296809   7.504545 H        1 UNL1     0.2921
     46 H         -5.388311   -4.054221   6.396411 H        1 UNL1     0.2922
     47 H         0.513011   0.322809   2.257385 H        1 UNL1     0.2126
     48 H         1.204481   -1.852241   -0.36388 H        1 UNL1     0.2101
     49 H         -2.030633   0.952749   -0.877942 H        1 UNL1     0.2100
     50 H         -2.688003   -3.311092   -1.213992 H        1 UNL1     0.2102
@<TRIPOS>BOND
     1     1     2    1
     2     1     6    1
     3     2     3    1
     4     3     4    1
     5     3    29    1
     6     3    33    1
     7     4     5    1
     8     5     6    1
     9     5     7    1
    10     5    35    1
    11     7     8    1
    12     8     9   ar
    13     8    13   ar
    14     9    10   ar
    15     9    36    1
    16    10    11   ar
    17    10    26    1
    18    11    12   ar
    19    11    14    1
    20    12    13   ar
    21    12    17    1
    22    13    37    1
    23    14    15    1
    24    14    25    2
    25    15    16    1
    26    15    38    1
    27    15    39    1
    28    16    17    1
    29    16    18    1
    30    16    40    1
    31    18    19   ar
    32    18    23   ar
    33    19    20   ar
    34    19    41    1
    35    20    21   ar
    36    20    42    1
    37    21    22   ar
    38    21    24    1
    39    22    23   ar
    40    22    43    1
    41    23    44    1
    42    24    45    1
    43    26    46    1
    44    27    47    1
    45    28    48    1
    46    29    49    1
    47    30    50    1
    48     1    31    1
    49     1    27    1
    50     2    32    1
    51     2    28    1
    52     4    34    1
    53     4    30    1
