@<TRIPOS>MOLECULE
*****
 50 53 0 0 0
SMALL
GASTEIGER

@<TRIPOS>ATOM
     1 C         -1.434087   0.250059   -1.628395 C.3        1 UNL1     0.1889
     2 C         -0.809681   0.686915   -0.27591 C.3        1 UNL1     0.1342
     3 C         -1.806089   0.780946   0.889763 C.3        1 UNL1     0.1174
     4 C         -3.191663   1.259537   0.449021 C.3        1 UNL1     0.1456
     5 C         -3.694676   0.53102   -0.810584 C.3        1 UNL1     0.2326
     6 O         -2.759463   0.696674   -1.873976 O.3        1 UNL1     -0.3076
     7 O         -4.04609   -0.844641   -0.575242 O.3        1 UNL1     -0.4605
     8 C         -3.960546   -1.687751   -1.668575 C.ar        1 UNL1     0.1310
     9 C         -3.954913   -3.085762   -1.615336 C.ar        1 UNL1     0.0226
     10 C         -3.881956   -3.854211   -2.783268 C.ar        1 UNL1     0.1343
     11 C         -3.836827   -3.242787   -4.035452 C.ar        1 UNL1     0.1007
     12 C         -3.800454   -1.847298   -4.099266 C.ar        1 UNL1     0.1389
     13 C         -3.871155   -1.074853   -2.924635 C.ar        1 UNL1     0.0229
     14 C         -3.843429   -4.005949   -5.304978 C.2        1 UNL1     0.1740
     15 C         -4.017432   -3.18997   -6.552155 C.3        1 UNL1     0.0520
     16 C         -3.201679   -1.912384   -6.409749 C.3        1 UNL1     0.1322
     17 O         -3.647951   -1.143268   -5.271167 O.3        1 UNL1     -0.4828
     18 C         -1.688894   -2.137346   -6.469739 C.ar        1 UNL1     -0.0067
     19 C         -1.073832   -2.381131   -7.714922 C.ar        1 UNL1     -0.0516
     20 C         0.299824   -2.637773   -7.799572 C.ar        1 UNL1     -0.0198
     21 C         1.066317   -2.66061   -6.648141 C.ar        1 UNL1     0.1169
     22 C         0.495473   -2.391228   -5.411044 C.ar        1 UNL1     -0.0198
     23 C         -0.87479   -2.116333   -5.328167 C.ar        1 UNL1     -0.0516
     24 O         2.39373   -2.951453   -6.765557 O.3        1 UNL1     -0.5068
     25 O         -3.79281   -5.232002   -5.357091 O.2        1 UNL1     -0.2917
     26 O         -3.879332   -5.213254   -2.662524 O.3        1 UNL1     -0.5058
     27 O         -1.290342   -1.135756   -1.896051 O.3        1 UNL1     -0.3648
     28 O         -0.223148   1.990876   -0.444345 O.3        1 UNL1     -0.3841
     29 O         -1.850839   -0.447268   1.618886 O.3        1 UNL1     -0.3863
     30 O         -3.138546   2.676591   0.175479 O.3        1 UNL1     -0.3829
     31 H         -0.849264   0.73876   -2.415308 H        1 UNL1     0.0937
     32 H         0.0   0.0   0.0 H        1 UNL1     0.0671
     33 H         -1.422758   1.527599   1.59919 H        1 UNL1     0.0649
     34 H         -3.912616   1.116733   1.261569 H        1 UNL1     0.0683
     35 H         -4.599418   1.084069   -1.092467 H        1 UNL1     0.1085
     36 H         -4.044231   -3.620995   -0.676365 H        1 UNL1     0.0691
     37 H         -3.839991   0.009881   -3.001277 H        1 UNL1     0.0691
     38 H         -5.084779   -2.967527   -6.65616 H        1 UNL1     0.0385
     39 H         -3.706307   -3.78563   -7.417123 H        1 UNL1     0.0385
     40 H         -3.436083   -1.2803   -7.276954 H        1 UNL1     0.0789
     41 H         -1.655264   -2.377749   -8.632297 H        1 UNL1     0.0623
     42 H         0.760253   -2.836044   -8.764303 H        1 UNL1     0.0654
     43 H         1.089237   -2.391712   -4.504758 H        1 UNL1     0.0654
     44 H         -1.285428   -1.899852   -4.346659 H        1 UNL1     0.0623
     45 H         2.888161   -2.116817   -6.80602 H        1 UNL1     0.2921
     46 H         -3.905307   -5.616469   -3.544655 H        1 UNL1     0.2922
     47 H         -0.365783   -1.345423   -2.088641 H        1 UNL1     0.2126
     48 H         0.079851   2.277454   0.438716 H        1 UNL1     0.2101
     49 H         -2.352023   -1.110351   1.117958 H        1 UNL1     0.2100
     50 H         -3.905118   3.097778   0.616706 H        1 UNL1     0.2102
@<TRIPOS>BOND
     1     1     2    1
     2     1     6    1
     3     2     3    1
     4     3     4    1
     5     3    29    1
     6     3    33    1
     7     4     5    1
     8     5     6    1
     9     5     7    1
    10     5    35    1
    11     7     8    1
    12     8     9   ar
    13     8    13   ar
    14     9    10   ar
    15     9    36    1
    16    10    11   ar
    17    10    26    1
    18    11    12   ar
    19    11    14    1
    20    12    13   ar
    21    12    17    1
    22    13    37    1
    23    14    15    1
    24    14    25    2
    25    15    16    1
    26    15    38    1
    27    15    39    1
    28    16    17    1
    29    16    18    1
    30    16    40    1
    31    18    19   ar
    32    18    23   ar
    33    19    20   ar
    34    19    41    1
    35    20    21   ar
    36    20    42    1
    37    21    22   ar
    38    21    24    1
    39    22    23   ar
    40    22    43    1
    41    23    44    1
    42    24    45    1
    43    26    46    1
    44    27    47    1
    45    28    48    1
    46    29    49    1
    47    30    50    1
    48     1    31    1
    49     1    27    1
    50     2    32    1
    51     2    28    1
    52     4    34    1
    53     4    30    1
