@<TRIPOS>MOLECULE
*****
 50 53 0 0 0
SMALL
GASTEIGER

@<TRIPOS>ATOM
     1 C         -0.345216   -1.336121   1.693048 C.3        1 UNL1     0.1889
     2 C         -0.468964   -0.97368   0.188633 C.3        1 UNL1     0.1342
     3 C         -1.90807   -0.94927   -0.348809 C.3        1 UNL1     0.1174
     4 C         -2.802791   -2.00692   0.302319 C.3        1 UNL1     0.1456
     5 C         -2.655986   -2.04206   1.834499 C.3        1 UNL1     0.2326
     6 O         -1.293509   -2.270473   2.187135 O.3        1 UNL1     -0.3076
     7 O         -3.22591   -0.895329   2.491397 O.3        1 UNL1     -0.4605
     8 C         -3.741009   -1.11508   3.756273 C.ar        1 UNL1     0.1310
     9 C         -4.56512   -2.185191   4.120967 C.ar        1 UNL1     0.0226
     10 C         -5.023164   -2.330516   5.435874 C.ar        1 UNL1     0.1343
     11 C         -4.648382   -1.421453   6.424298 C.ar        1 UNL1     0.1007
     12 C         -3.859322   -0.326048   6.063386 C.ar        1 UNL1     0.1389
     13 C         -3.401059   -0.178696   4.740619 C.ar        1 UNL1     0.0229
     14 C         -5.034501   -1.573298   7.846272 C.2        1 UNL1     0.1740
     15 C         -4.362817   -0.63479   8.805226 C.3        1 UNL1     0.0520
     16 C         -4.283007   0.740568   8.157168 C.3        1 UNL1     0.1322
     17 O         -3.520853   0.686266   6.9311 O.3        1 UNL1     -0.4828
     18 C         -5.637575   1.442054   8.031529 C.ar        1 UNL1     -0.0067
     19 C         -6.001715   2.029881   6.802677 C.ar        1 UNL1     -0.0516
     20 C         -7.21226   2.719958   6.667266 C.ar        1 UNL1     -0.0198
     21 C         -8.062041   2.835288   7.752806 C.ar        1 UNL1     0.1169
     22 C         -7.746587   2.238592   8.966595 C.ar        1 UNL1     -0.0198
     23 C         -6.544617   1.532695   9.097105 C.ar        1 UNL1     -0.0516
     24 O         -9.214671   3.547008   7.593745 O.3        1 UNL1     -0.5068
     25 O         -5.79   -2.452778   8.251514 O.2        1 UNL1     -0.2917
     26 O         -5.824964   -3.395661   5.725989 O.3        1 UNL1     -0.5058
     27 O         -0.235535   -0.203452   2.540288 O.3        1 UNL1     -0.3648
     28 O         0.257908   -1.952115   -0.577543 O.3        1 UNL1     -0.3841
     29 O         -2.457731   0.367263   -0.266682 O.3        1 UNL1     -0.3863
     30 O         -2.461585   -3.306765   -0.226521 O.3        1 UNL1     -0.3829
     31 H         0.611944   -1.855523   1.811983 H        1 UNL1     0.0937
     32 H         0.0   0.0   0.0 H        1 UNL1     0.0671
     33 H         -1.869264   -1.182822   -1.421967 H        1 UNL1     0.0649
     34 H         -3.851025   -1.820691   0.043619 H        1 UNL1     0.0683
     35 H         -3.217072   -2.93628   2.133551 H        1 UNL1     0.1085
     36 H         -4.846075   -2.956014   3.41173 H        1 UNL1     0.0691
     37 H         -2.788889   0.68352   4.485032 H        1 UNL1     0.0691
     38 H         -3.363548   -1.032293   9.012544 H        1 UNL1     0.0385
     39 H         -4.925857   -0.617819   9.744628 H        1 UNL1     0.0385
     40 H         -3.686248   1.378184   8.823384 H        1 UNL1     0.0789
     41 H         -5.347806   1.961229   5.938188 H        1 UNL1     0.0623
     42 H         -7.476295   3.179071   5.717786 H        1 UNL1     0.0654
     43 H         -8.411766   2.309907   9.818863 H        1 UNL1     0.0654
     44 H         -6.335135   1.070173   10.056812 H        1 UNL1     0.0623
     45 H         -8.981521   4.460235   7.360564 H        1 UNL1     0.2921
     46 H         -5.427228   -3.914116   6.443221 H        1 UNL1     0.2922
     47 H         0.509117   0.34949   2.265318 H        1 UNL1     0.2126
     48 H         1.193203   -1.881879   -0.305474 H        1 UNL1     0.2101
     49 H         -2.019232   0.948572   -0.908236 H        1 UNL1     0.2100
     50 H         -2.697274   -3.316781   -1.177343 H        1 UNL1     0.2102
@<TRIPOS>BOND
     1     1     2    1
     2     1     6    1
     3     2     3    1
     4     3     4    1
     5     3    29    1
     6     3    33    1
     7     4     5    1
     8     5     6    1
     9     5     7    1
    10     5    35    1
    11     7     8    1
    12     8     9   ar
    13     8    13   ar
    14     9    10   ar
    15     9    36    1
    16    10    11   ar
    17    10    26    1
    18    11    12   ar
    19    11    14    1
    20    12    13   ar
    21    12    17    1
    22    13    37    1
    23    14    15    1
    24    14    25    2
    25    15    16    1
    26    15    38    1
    27    15    39    1
    28    16    17    1
    29    16    18    1
    30    16    40    1
    31    18    19   ar
    32    18    23   ar
    33    19    20   ar
    34    19    41    1
    35    20    21   ar
    36    20    42    1
    37    21    22   ar
    38    21    24    1
    39    22    23   ar
    40    22    43    1
    41    23    44    1
    42    24    45    1
    43    26    46    1
    44    27    47    1
    45    28    48    1
    46    29    49    1
    47    30    50    1
    48     1    31    1
    49     1    27    1
    50     2    32    1
    51     2    28    1
    52     4    34    1
    53     4    30    1
