@<TRIPOS>MOLECULE
*****
 50 53 0 0 0
SMALL
GASTEIGER

@<TRIPOS>ATOM
     1 C         -0.332662   -1.328296   1.701696 C.3        1 UNL1     0.1889
     2 C         -0.462893   -0.975208   0.195605 C.3        1 UNL1     0.1342
     3 C         -1.903691   -0.962001   -0.337676 C.3        1 UNL1     0.1174
     4 C         -2.790494   -2.02092   0.322164 C.3        1 UNL1     0.1456
     5 C         -2.638976   -2.046427   1.854077 C.3        1 UNL1     0.2326
     6 O         -1.274196   -2.265125   2.203953 O.3        1 UNL1     -0.3076
     7 O         -3.213437   -0.899171   2.506089 O.3        1 UNL1     -0.4605
     8 C         -3.723128   -1.114446   3.773922 C.ar        1 UNL1     0.1310
     9 C         -4.539796   -2.187158   4.14761 C.ar        1 UNL1     0.0226
     10 C         -4.992705   -2.327382   5.464846 C.ar        1 UNL1     0.1343
     11 C         -4.620016   -1.410341   6.446671 C.ar        1 UNL1     0.1007
     12 C         -3.838535   -0.312518   6.076732 C.ar        1 UNL1     0.1389
     13 C         -3.385444   -0.170311   4.751622 C.ar        1 UNL1     0.0229
     14 C         -5.000616   -1.556035   7.870774 C.2        1 UNL1     0.1740
     15 C         -4.3313   -0.607999   8.821979 C.3        1 UNL1     0.0520
     16 C         -4.261618   0.763952   8.165586 C.3        1 UNL1     0.1322
     17 O         -3.503154   0.706848   6.93736 O.3        1 UNL1     -0.4828
     18 C         -5.620655   1.456802   8.040277 C.ar        1 UNL1     -0.0067
     19 C         -5.999668   2.019729   6.804285 C.ar        1 UNL1     -0.0516
     20 C         -7.214732   2.701641   6.667988 C.ar        1 UNL1     -0.0198
     21 C         -8.0543   2.833537   7.759572 C.ar        1 UNL1     0.1169
     22 C         -7.724077   2.261238   8.981155 C.ar        1 UNL1     -0.0198
     23 C         -6.517561   1.563378   9.112936 C.ar        1 UNL1     -0.0516
     24 O         -9.211788   3.536904   7.598647 O.3        1 UNL1     -0.5068
     25 O         -5.749653   -2.437485   8.283663 O.2        1 UNL1     -0.2917
     26 O         -5.787334   -3.395439   5.763854 O.3        1 UNL1     -0.5058
     27 O         -0.22689   -0.190176   2.542103 O.3        1 UNL1     -0.3648
     28 O         0.267239   -1.953916   -0.567116 O.3        1 UNL1     -0.3841
     29 O         -2.460544   0.351862   -0.261455 O.3        1 UNL1     -0.3863
     30 O         -2.443503   -3.321838   -0.200234 O.3        1 UNL1     -0.3829
     31 H         0.627766   -1.841601   1.820753 H        1 UNL1     0.0937
     32 H         0.0   0.0   0.0 H        1 UNL1     0.0671
     33 H         -1.86673   -1.201493   -1.409589 H        1 UNL1     0.0649
     34 H         -3.840522   -1.842093   0.065527 H        1 UNL1     0.0683
     35 H         -3.194113   -2.942063   2.159918 H        1 UNL1     0.1085
     36 H         -4.818557   -2.963771   3.443845 H        1 UNL1     0.0691
     37 H         -2.779146   0.693925   4.488958 H        1 UNL1     0.0691
     38 H         -3.329062   -0.998458   9.028347 H        1 UNL1     0.0385
     39 H         -4.891371   -0.588758   9.763111 H        1 UNL1     0.0385
     40 H         -3.666423   1.408945   8.826076 H        1 UNL1     0.0789
     41 H         -5.354001   1.937777   5.934775 H        1 UNL1     0.0623
     42 H         -7.490283   3.141593   5.712725 H        1 UNL1     0.0654
     43 H         -8.381147   2.345572   9.83851 H        1 UNL1     0.0654
     44 H         -6.296443   1.119963   10.079029 H        1 UNL1     0.0623
     45 H         -8.985493   4.444375   7.337874 H        1 UNL1     0.2921
     46 H         -5.38356   -3.908111   6.48187 H        1 UNL1     0.2922
     47 H         0.516456   0.363159   2.264406 H        1 UNL1     0.2126
     48 H         1.200173   -1.888525   -0.285886 H        1 UNL1     0.2101
     49 H         -2.021385   0.934075   -0.901738 H        1 UNL1     0.2100
     50 H         -2.676715   -3.336721   -1.151604 H        1 UNL1     0.2102
@<TRIPOS>BOND
     1     1     2    1
     2     1     6    1
     3     2     3    1
     4     3     4    1
     5     3    29    1
     6     3    33    1
     7     4     5    1
     8     5     6    1
     9     5     7    1
    10     5    35    1
    11     7     8    1
    12     8     9   ar
    13     8    13   ar
    14     9    10   ar
    15     9    36    1
    16    10    11   ar
    17    10    26    1
    18    11    12   ar
    19    11    14    1
    20    12    13   ar
    21    12    17    1
    22    13    37    1
    23    14    15    1
    24    14    25    2
    25    15    16    1
    26    15    38    1
    27    15    39    1
    28    16    17    1
    29    16    18    1
    30    16    40    1
    31    18    19   ar
    32    18    23   ar
    33    19    20   ar
    34    19    41    1
    35    20    21   ar
    36    20    42    1
    37    21    22   ar
    38    21    24    1
    39    22    23   ar
    40    22    43    1
    41    23    44    1
    42    24    45    1
    43    26    46    1
    44    27    47    1
    45    28    48    1
    46    29    49    1
    47    30    50    1
    48     1    31    1
    49     1    27    1
    50     2    32    1
    51     2    28    1
    52     4    34    1
    53     4    30    1
