@<TRIPOS>MOLECULE
*****
 50 53 0 0 0
SMALL
GASTEIGER

@<TRIPOS>ATOM
     1 C         -0.330349   -1.327378   1.702863 C.3        1 UNL1     0.1889
     2 C         -0.461408   -0.97573   0.196507 C.3        1 UNL1     0.1342
     3 C         -1.902334   -0.965098   -0.33649 C.3        1 UNL1     0.1174
     4 C         -2.787433   -2.024782   0.324408 C.3        1 UNL1     0.1456
     5 C         -2.635566   -2.048796   1.85631 C.3        1 UNL1     0.2326
     6 O         -1.270392   -2.265183   2.206088 O.3        1 UNL1     -0.3076
     7 O         -3.211592   -0.901852   2.50749 O.3        1 UNL1     -0.4605
     8 C         -3.720706   -1.116831   3.775605 C.ar        1 UNL1     0.1310
     9 C         -4.535709   -2.190442   4.150348 C.ar        1 UNL1     0.0226
     10 C         -4.988142   -2.330246   5.467793 C.ar        1 UNL1     0.1343
     11 C         -4.616611   -1.411841   6.448782 C.ar        1 UNL1     0.1007
     12 C         -3.836831   -0.313169   6.077774 C.ar        1 UNL1     0.1389
     13 C         -3.384221   -0.171389   4.752454 C.ar        1 UNL1     0.0229
     14 C         -4.996706   -1.55692   7.873083 C.2        1 UNL1     0.1740
     15 C         -4.3286   -0.607106   8.823366 C.3        1 UNL1     0.0520
     16 C         -4.261083   0.764403   8.165823 C.3        1 UNL1     0.1322
     17 O         -3.502785   0.707404   6.93749 O.3        1 UNL1     -0.4828
     18 C         -5.62117   1.455135   8.040219 C.ar        1 UNL1     -0.0067
     19 C         -6.001267   2.016478   6.803839 C.ar        1 UNL1     -0.0516
     20 C         -7.217367   2.696477   6.667226 C.ar        1 UNL1     -0.0198
     21 C         -8.056907   2.828034   7.758873 C.ar        1 UNL1     0.1169
     22 C         -7.725589   2.257236   8.980861 C.ar        1 UNL1     -0.0198
     23 C         -6.518014   1.561272   9.112973 C.ar        1 UNL1     -0.0516
     24 O         -9.215468   3.529553   7.597603 O.3        1 UNL1     -0.5068
     25 O         -5.744352   -2.439135   8.286854 O.2        1 UNL1     -0.2917
     26 O         -5.781127   -3.399229   5.767847 O.3        1 UNL1     -0.5058
     27 O         -0.226091   -0.188407   2.542306 O.3        1 UNL1     -0.3648
     28 O         0.270016   -1.953988   -0.565553 O.3        1 UNL1     -0.3841
     29 O         -2.461116   0.348003   -0.261243 O.3        1 UNL1     -0.3863
     30 O         -2.438623   -3.325616   -0.196985 O.3        1 UNL1     -0.3829
     31 H         0.630862   -1.839162   1.822148 H        1 UNL1     0.0937
     32 H         0.0   0.0   0.0 H        1 UNL1     0.0671
     33 H         -1.865236   -1.205422   -1.408212 H        1 UNL1     0.0649
     34 H         -3.837777   -1.847722   0.067838 H        1 UNL1     0.0683
     35 H         -3.189314   -2.944999   2.163006 H        1 UNL1     0.1085
     36 H         -4.813463   -2.968049   3.447283 H        1 UNL1     0.0691
     37 H         -2.779257   0.693526   4.488951 H        1 UNL1     0.0691
     38 H         -3.325743   -0.995911   9.029851 H        1 UNL1     0.0385
     39 H         -4.888507   -0.587915   9.764596 H        1 UNL1     0.0385
     40 H         -3.666709   1.410822   8.825658 H        1 UNL1     0.0789
     41 H         -5.355656   1.934761   5.934265 H        1 UNL1     0.0623
     42 H         -7.493763   3.135229   5.711657 H        1 UNL1     0.0654
     43 H         -8.382608   2.341306   9.838281 H        1 UNL1     0.0654
     44 H         -6.296043   1.118985   10.079387 H        1 UNL1     0.0623
     45 H         -8.990591   4.436951   7.335352 H        1 UNL1     0.2921
     46 H         -5.375932   -3.911291   6.485497 H        1 UNL1     0.2922
     47 H         0.516378   0.365798   2.263999 H        1 UNL1     0.2126
     48 H         1.20279   -1.887471   -0.284056 H        1 UNL1     0.2101
     49 H         -2.02289   0.930356   -0.902036 H        1 UNL1     0.2100
     50 H         -2.672006   -3.341632   -1.148294 H        1 UNL1     0.2102
@<TRIPOS>BOND
     1     1     2    1
     2     1     6    1
     3     2     3    1
     4     3     4    1
     5     3    29    1
     6     3    33    1
     7     4     5    1
     8     5     6    1
     9     5     7    1
    10     5    35    1
    11     7     8    1
    12     8     9   ar
    13     8    13   ar
    14     9    10   ar
    15     9    36    1
    16    10    11   ar
    17    10    26    1
    18    11    12   ar
    19    11    14    1
    20    12    13   ar
    21    12    17    1
    22    13    37    1
    23    14    15    1
    24    14    25    2
    25    15    16    1
    26    15    38    1
    27    15    39    1
    28    16    17    1
    29    16    18    1
    30    16    40    1
    31    18    19   ar
    32    18    23   ar
    33    19    20   ar
    34    19    41    1
    35    20    21   ar
    36    20    42    1
    37    21    22   ar
    38    21    24    1
    39    22    23   ar
    40    22    43    1
    41    23    44    1
    42    24    45    1
    43    26    46    1
    44    27    47    1
    45    28    48    1
    46    29    49    1
    47    30    50    1
    48     1    31    1
    49     1    27    1
    50     2    32    1
    51     2    28    1
    52     4    34    1
    53     4    30    1
