@<TRIPOS>MOLECULE
*****
 50 53 0 0 0
SMALL
GASTEIGER

@<TRIPOS>ATOM
     1 C         -0.329464   -1.328829   1.701902 C.3        1 UNL1     0.1889
     2 C         -0.460631   -0.976244   0.195775 C.3        1 UNL1     0.1342
     3 C         -1.901501   -0.966424   -0.337388 C.3        1 UNL1     0.1174
     4 C         -2.78581   -2.027292   0.322669 C.3        1 UNL1     0.1456
     5 C         -2.634107   -2.052244   1.854572 C.3        1 UNL1     0.2326
     6 O         -1.268797   -2.267754   2.204364 O.3        1 UNL1     -0.3076
     7 O         -3.211151   -0.906225   2.506478 O.3        1 UNL1     -0.4605
     8 C         -3.720665   -1.122608   3.774193 C.ar        1 UNL1     0.1310
     9 C         -4.535132   -2.197062   4.14768 C.ar        1 UNL1     0.0226
     10 C         -4.988035   -2.338274   5.464813 C.ar        1 UNL1     0.1343
     11 C         -4.617515   -1.420461   6.446738 C.ar        1 UNL1     0.1007
     12 C         -3.838289   -0.320971   6.076993 C.ar        1 UNL1     0.1389
     13 C         -3.385206   -0.177776   4.751987 C.ar        1 UNL1     0.0229
     14 C         -4.998121   -1.566993   7.870754 C.2        1 UNL1     0.1740
     15 C         -4.331034   -0.617553   8.822126 C.3        1 UNL1     0.0520
     16 C         -4.264125   0.754556   8.165774 C.3        1 UNL1     0.1322
     17 O         -3.505267   0.699088   6.937715 O.3        1 UNL1     -0.4828
     18 C         -5.624605   1.444515   8.040175 C.ar        1 UNL1     -0.0067
     19 C         -6.003364   2.009115   6.804869 C.ar        1 UNL1     -0.0516
     20 C         -7.219832   2.688493   6.668442 C.ar        1 UNL1     -0.0198
     21 C         -8.061077   2.816192   7.759234 C.ar        1 UNL1     0.1169
     22 C         -7.731067   2.242137   8.980051 C.ar        1 UNL1     -0.0198
     23 C         -6.523104   1.546801   9.111917 C.ar        1 UNL1     -0.0516
     24 O         -9.219989   3.517208   7.598296 O.3        1 UNL1     -0.5068
     25 O         -5.745372   -2.450041   8.283459 O.2        1 UNL1     -0.2917
     26 O         -5.780456   -3.408025   5.763625 O.3        1 UNL1     -0.5058
     27 O         -0.226241   -0.190356   2.542147 O.3        1 UNL1     -0.3648
     28 O         0.271687   -1.953373   -0.566876 O.3        1 UNL1     -0.3841
     29 O         -2.461369   0.346165   -0.261297 O.3        1 UNL1     -0.3863
     30 O         -2.435871   -3.327478   -0.199584 O.3        1 UNL1     -0.3829
     31 H         0.632153   -1.839907   1.820947 H        1 UNL1     0.0937
     32 H         0.0   0.0   0.0 H        1 UNL1     0.0671
     33 H         -1.864078   -1.205974   -1.409272 H        1 UNL1     0.0649
     34 H         -3.836268   -1.850916   0.066095 H        1 UNL1     0.0683
     35 H         -3.187155   -2.949114   2.16058 H        1 UNL1     0.1085
     36 H         -4.812084   -2.974253   3.443838 H        1 UNL1     0.0691
     37 H         -2.78069   0.687753   4.489473 H        1 UNL1     0.0691
     38 H         -3.328014   -1.005884   9.028708 H        1 UNL1     0.0385
     39 H         -4.891353   -0.599522   9.763133 H        1 UNL1     0.0385
     40 H         -3.67045   1.4008   8.826408 H        1 UNL1     0.0789
     41 H         -5.356414   1.930452   5.936008 H        1 UNL1     0.0623
     42 H         -7.495198   3.129777   5.713741 H        1 UNL1     0.0654
     43 H         -8.38941   2.32318   9.836746 H        1 UNL1     0.0654
     44 H         -6.302177   1.101906   10.077373 H        1 UNL1     0.0623
     45 H         -8.99532   4.427234   7.345129 H        1 UNL1     0.2921
     46 H         -5.376445   -3.919075   6.482662 H        1 UNL1     0.2922
     47 H         0.513155   0.366851   2.261659 H        1 UNL1     0.2126
     48 H         1.207211   -1.874114   -0.298091 H        1 UNL1     0.2101
     49 H         -2.023723   0.929257   -0.901815 H        1 UNL1     0.2100
     50 H         -2.674342   -3.344962   -1.149605 H        1 UNL1     0.2102
@<TRIPOS>BOND
     1     1     2    1
     2     1     6    1
     3     2     3    1
     4     3     4    1
     5     3    29    1
     6     3    33    1
     7     4     5    1
     8     5     6    1
     9     5     7    1
    10     5    35    1
    11     7     8    1
    12     8     9   ar
    13     8    13   ar
    14     9    10   ar
    15     9    36    1
    16    10    11   ar
    17    10    26    1
    18    11    12   ar
    19    11    14    1
    20    12    13   ar
    21    12    17    1
    22    13    37    1
    23    14    15    1
    24    14    25    2
    25    15    16    1
    26    15    38    1
    27    15    39    1
    28    16    17    1
    29    16    18    1
    30    16    40    1
    31    18    19   ar
    32    18    23   ar
    33    19    20   ar
    34    19    41    1
    35    20    21   ar
    36    20    42    1
    37    21    22   ar
    38    21    24    1
    39    22    23   ar
    40    22    43    1
    41    23    44    1
    42    24    45    1
    43    26    46    1
    44    27    47    1
    45    28    48    1
    46    29    49    1
    47    30    50    1
    48     1    31    1
    49     1    27    1
    50     2    32    1
    51     2    28    1
    52     4    34    1
    53     4    30    1
