@<TRIPOS>MOLECULE
*****
 50 53 0 0 0
SMALL
GASTEIGER

@<TRIPOS>ATOM
     1 C         -7.8e-05   -1.104612   1.884313 C.3        1 UNL1     0.1889
     2 C         -0.263016   -1.003209   0.357709 C.3        1 UNL1     0.1342
     3 C         -1.703841   -1.325092   -0.067589 C.3        1 UNL1     0.1174
     4 C         -2.345884   -2.417949   0.790643 C.3        1 UNL1     0.1456
     5 C         -2.122088   -2.193017   2.29719 C.3        1 UNL1     0.2326
     6 O         -0.72588   -2.111339   2.574319 O.3        1 UNL1     -0.3076
     7 O         -2.870267   -1.084342   2.828593 O.3        1 UNL1     -0.4605
     8 C         -3.272391   -1.200714   4.147032 C.ar        1 UNL1     0.1310
     9 C         -3.856501   -2.336105   4.718873 C.ar        1 UNL1     0.0226
     10 C         -4.214658   -2.362137   6.071999 C.ar        1 UNL1     0.1343
     11 C         -3.97531   -1.260661   6.892549 C.ar        1 UNL1     0.1007
     12 C         -3.430247   -0.106564   6.323557 C.ar        1 UNL1     0.1389
     13 C         -3.072641   -0.079714   4.962371 C.ar        1 UNL1     0.0229
     14 C         -4.256607   -1.263602   8.346859 C.2        1 UNL1     0.1740
     15 C         -3.733346   -0.08349   9.111766 C.3        1 UNL1     0.0520
     16 C         -3.951068   1.168819   8.273748 C.3        1 UNL1     0.1322
     17 O         -3.252147   1.070243   7.013247 O.3        1 UNL1     -0.4828
     18 C         -5.419841   1.58246   8.15404 C.ar        1 UNL1     -0.0067
     19 C         -5.952569   1.885957   6.884275 C.ar        1 UNL1     -0.0516
     20 C         -7.278504   2.313111   6.744996 C.ar        1 UNL1     -0.0198
     21 C         -8.077938   2.447549   7.866005 C.ar        1 UNL1     0.1169
     22 C         -7.591987   2.124149   9.126204 C.ar        1 UNL1     -0.0198
     23 C         -6.271666   1.679297   9.26373 C.ar        1 UNL1     -0.0516
     24 O         -9.352485   2.902358   7.695478 O.3        1 UNL1     -0.5068
     25 O         -4.808265   -2.195103   8.926915 O.2        1 UNL1     -0.2917
     26 O         -4.781418   -3.499908   6.567828 O.3        1 UNL1     -0.5058
     27 O         -0.07038   0.143993   2.55426 O.3        1 UNL1     -0.3648
     28 O         0.601343   -1.936169   -0.316958 O.3        1 UNL1     -0.3841
     29 O         -2.492317   -0.134849   -0.128914 O.3        1 UNL1     -0.3863
     30 O         -1.786256   -3.697922   0.424344 O.3        1 UNL1     -0.3829
     31 H         1.043791   -1.415368   2.001989 H        1 UNL1     0.0937
     32 H         0.0   0.0   0.0 H        1 UNL1     0.0671
     33 H         -1.672036   -1.707384   -1.097425 H        1 UNL1     0.0649
     34 H         -3.42149   -2.468684   0.588408 H        1 UNL1     0.0683
     35 H         -2.485431   -3.119233   2.759774 H        1 UNL1     0.1085
     36 H         -4.017197   -3.243795   4.147563 H        1 UNL1     0.0691
     37 H         -2.650989   0.83138   4.543311 H        1 UNL1     0.0691
     38 H         -2.667475   -0.254731   9.29649 H        1 UNL1     0.0385
     39 H         -4.243607   -0.02805   10.079412 H        1 UNL1     0.0385
     40 H         -3.457239   1.998585   8.797334 H        1 UNL1     0.0789
     41 H         -5.342758   1.797238   5.989898 H        1 UNL1     0.0623
     42 H         -7.674093   2.555533   5.76176 H        1 UNL1     0.0654
     43 H         -8.213981   2.21141   10.009052 H        1 UNL1     0.0654
     44 H         -5.928362   1.425325   10.261971 H        1 UNL1     0.0623
     45 H         -9.311531   3.791166   7.306816 H        1 UNL1     0.2921
     46 H         -4.256682   -3.822568   7.317464 H        1 UNL1     0.2922
     47 H         0.540788   0.775671   2.150137 H        1 UNL1     0.2126
     48 H         1.517545   -1.661735   -0.11949 H        1 UNL1     0.2101
     49 H         -2.199682   0.416958   -0.871658 H        1 UNL1     0.2100
     50 H         -2.056013   -3.892346   -0.497146 H        1 UNL1     0.2102
@<TRIPOS>BOND
     1     1     2    1
     2     1     6    1
     3     2     3    1
     4     3     4    1
     5     3    29    1
     6     3    33    1
     7     4     5    1
     8     5     6    1
     9     5     7    1
    10     5    35    1
    11     7     8    1
    12     8     9   ar
    13     8    13   ar
    14     9    10   ar
    15     9    36    1
    16    10    11   ar
    17    10    26    1
    18    11    12   ar
    19    11    14    1
    20    12    13   ar
    21    12    17    1
    22    13    37    1
    23    14    15    1
    24    14    25    2
    25    15    16    1
    26    15    38    1
    27    15    39    1
    28    16    17    1
    29    16    18    1
    30    16    40    1
    31    18    19   ar
    32    18    23   ar
    33    19    20   ar
    34    19    41    1
    35    20    21   ar
    36    20    42    1
    37    21    22   ar
    38    21    24    1
    39    22    23   ar
    40    22    43    1
    41    23    44    1
    42    24    45    1
    43    26    46    1
    44    27    47    1
    45    28    48    1
    46    29    49    1
    47    30    50    1
    48     1    31    1
    49     1    27    1
    50     2    32    1
    51     2    28    1
    52     4    34    1
    53     4    30    1
