@<TRIPOS>MOLECULE
*****
 50 53 0 0 0
SMALL
GASTEIGER

@<TRIPOS>ATOM
     1 C         0.233612   -1.871773   1.101225 C.3        1 UNL1     0.1889
     2 C         -0.54932   -0.57694   0.754288 C.3        1 UNL1     0.1342
     3 C         -0.852623   0.330546   1.956345 C.3        1 UNL1     0.1174
     4 C         -1.124373   -0.456707   3.240674 C.3        1 UNL1     0.1456
     5 C         -0.088322   -1.569907   3.480984 C.3        1 UNL1     0.2326
     6 O         -0.057088   -2.454398   2.363143 O.3        1 UNL1     -0.3076
     7 O         1.212227   -1.073426   3.846223 O.3        1 UNL1     -0.4605
     8 C         2.254524   -1.978148   3.753367 C.ar        1 UNL1     0.1310
     9 C         3.223175   -2.202221   4.737647 C.ar        1 UNL1     0.0226
     10 C         4.232253   -3.155514   4.556276 C.ar        1 UNL1     0.1343
     11 C         4.283146   -3.925411   3.395022 C.ar        1 UNL1     0.1007
     12 C         3.345747   -3.682062   2.387625 C.ar        1 UNL1     0.1389
     13 C         2.332803   -2.721628   2.569125 C.ar        1 UNL1     0.0229
     14 C         5.276761   -5.004092   3.186863 C.2        1 UNL1     0.1740
     15 C         5.048016   -5.874726   1.986354 C.3        1 UNL1     0.0520
     16 C         4.59467   -4.992889   0.831019 C.3        1 UNL1     0.1322
     17 O         3.367868   -4.305279   1.161502 O.3        1 UNL1     -0.4828
     18 C         5.698332   -4.089558   0.27546 C.ar        1 UNL1     -0.0067
     19 C         5.479266   -3.388856   -0.928385 C.ar        1 UNL1     -0.0516
     20 C         6.484515   -2.591644   -1.488642 C.ar        1 UNL1     -0.0198
     21 C         7.712895   -2.492978   -0.860012 C.ar        1 UNL1     0.1169
     22 C         7.947466   -3.14433   0.343963 C.ar        1 UNL1     -0.0198
     23 C         6.936151   -3.926864   0.913997 C.ar        1 UNL1     -0.0516
     24 O         8.680302   -1.737591   -1.454918 O.3        1 UNL1     -0.5068
     25 O         6.189969   -5.242989   3.972652 O.2        1 UNL1     -0.2917
     26 O         5.147155   -3.324736   5.554225 O.3        1 UNL1     -0.5058
     27 O         1.631396   -1.762516   0.884318 O.3        1 UNL1     -0.3648
     28 O         -1.811116   -0.949665   0.169776 O.3        1 UNL1     -0.3841
     29 O         0.168758   1.316931   2.117465 O.3        1 UNL1     -0.3863
     30 O         -2.437056   -1.053621   3.161652 O.3        1 UNL1     -0.3829
     31 H         -0.091436   -2.635055   0.385808 H        1 UNL1     0.0937
     32 H         0.0   0.0   0.0 H        1 UNL1     0.0671
     33 H         -1.768615   0.893501   1.728833 H        1 UNL1     0.0649
     34 H         -1.132102   0.221954   4.100768 H        1 UNL1     0.0683
     35 H         -0.50039   -2.137048   4.32504 H        1 UNL1     0.1085
     36 H         3.205193   -1.675853   5.685663 H        1 UNL1     0.0691
     37 H         1.615716   -2.55036   1.769159 H        1 UNL1     0.0691
     38 H         4.277497   -6.606969   2.250263 H        1 UNL1     0.0385
     39 H         5.970977   -6.417526   1.755512 H        1 UNL1     0.0385
     40 H         4.320813   -5.660157   0.002601 H        1 UNL1     0.0789
     41 H         4.526837   -3.457141   -1.445944 H        1 UNL1     0.0623
     42 H         6.307412   -2.065739   -2.423559 H        1 UNL1     0.0654
     43 H         8.900653   -3.061889   0.85244 H        1 UNL1     0.0654
     44 H         7.150453   -4.413178   1.860791 H        1 UNL1     0.0623
     45 H         9.546682   -2.104246   -1.21478 H        1 UNL1     0.2921
     46 H         5.991433   -2.92618   5.290103 H        1 UNL1     0.2922
     47 H         1.905932   -2.350908   0.167182 H        1 UNL1     0.2126
     48 H         -2.499425   -0.446258   0.645742 H        1 UNL1     0.2101
     49 H         0.012357   1.824295   2.929816 H        1 UNL1     0.2100
     50 H         -2.822215   -0.82089   2.291479 H        1 UNL1     0.2102
@<TRIPOS>BOND
     1     1     2    1
     2     1     6    1
     3     2     3    1
     4     3     4    1
     5     3    29    1
     6     3    33    1
     7     4     5    1
     8     5     6    1
     9     5     7    1
    10     5    35    1
    11     7     8    1
    12     8     9   ar
    13     8    13   ar
    14     9    10   ar
    15     9    36    1
    16    10    11   ar
    17    10    26    1
    18    11    12   ar
    19    11    14    1
    20    12    13   ar
    21    12    17    1
    22    13    37    1
    23    14    15    1
    24    14    25    2
    25    15    16    1
    26    15    38    1
    27    15    39    1
    28    16    17    1
    29    16    18    1
    30    16    40    1
    31    18    19   ar
    32    18    23   ar
    33    19    20   ar
    34    19    41    1
    35    20    21   ar
    36    20    42    1
    37    21    22   ar
    38    21    24    1
    39    22    23   ar
    40    22    43    1
    41    23    44    1
    42    24    45    1
    43    26    46    1
    44    27    47    1
    45    28    48    1
    46    29    49    1
    47    30    50    1
    48     1    31    1
    49     1    27    1
    50     2    32    1
    51     2    28    1
    52     4    34    1
    53     4    30    1
