@<TRIPOS>MOLECULE
*****
 50 53 0 0 0
SMALL
GASTEIGER

@<TRIPOS>ATOM
     1 C         0.758063   0.18227   -2.040324 C.3        1 UNL1     0.1889
     2 C         -0.286071   -0.323058   -1.008642 C.3        1 UNL1     0.1342
     3 C         -0.500214   -1.844439   -1.005656 C.3        1 UNL1     0.1174
     4 C         -0.379435   -2.463525   -2.400383 C.3        1 UNL1     0.1456
     5 C         0.857622   -1.958462   -3.165213 C.3        1 UNL1     0.2326
     6 O         0.821353   -0.536517   -3.263327 O.3        1 UNL1     -0.3076
     7 O         2.100472   -2.457812   -2.638625 O.3        1 UNL1     -0.4605
     8 C         2.835754   -3.267785   -3.485285 C.ar        1 UNL1     0.1310
     9 C         4.028082   -3.918835   -3.150936 C.ar        1 UNL1     0.0226
     10 C         4.691496   -4.734025   -4.075733 C.ar        1 UNL1     0.1343
     11 C         4.165566   -4.937135   -5.350874 C.ar        1 UNL1     0.1007
     12 C         2.997244   -4.259752   -5.70998 C.ar        1 UNL1     0.1389
     13 C         2.331782   -3.438043   -4.780794 C.ar        1 UNL1     0.0229
     14 C         4.780158   -5.853833   -6.338849 C.2        1 UNL1     0.1740
     15 C         3.965138   -6.122886   -7.569662 C.3        1 UNL1     0.0520
     16 C         3.312308   -4.819727   -8.009602 C.3        1 UNL1     0.1322
     17 O         2.451073   -4.30173   -6.971805 O.3        1 UNL1     -0.4828
     18 C         4.298523   -3.799528   -8.583448 C.ar        1 UNL1     -0.0067
     19 C         3.990579   -2.425157   -8.516467 C.ar        1 UNL1     -0.0516
     20 C         4.847956   -1.468937   -9.073703 C.ar        1 UNL1     -0.0198
     21 C         6.010052   -1.873882   -9.705667 C.ar        1 UNL1     0.1169
     22 C         6.357124   -3.217611   -9.758303 C.ar        1 UNL1     -0.0198
     23 C         5.50905   -4.172645   -9.184947 C.ar        1 UNL1     -0.0516
     24 O         6.801598   -0.917017   -10.269818 O.3        1 UNL1     -0.5068
     25 O         5.847505   -6.432074   -6.152049 O.2        1 UNL1     -0.2917
     26 O         5.850746   -5.339677   -3.687259 O.3        1 UNL1     -0.5058
     27 O         2.047756   0.3867   -1.485628 O.3        1 UNL1     -0.3648
     28 O         -1.555112   0.287582   -1.307574 O.3        1 UNL1     -0.3841
     29 O         0.34992   -2.474261   -0.045069 O.3        1 UNL1     -0.3863
     30 O         -1.561352   -2.141874   -3.165432 O.3        1 UNL1     -0.3829
     31 H         0.435079   1.182874   -2.347816 H        1 UNL1     0.0937
     32 H         0.0   0.0   0.0 H        1 UNL1     0.0671
     33 H         -1.525138   -2.038145   -0.65964 H        1 UNL1     0.0649
     34 H         -0.335458   -3.555484   -2.322329 H        1 UNL1     0.0683
     35 H         0.719908   -2.351823   -4.180191 H        1 UNL1     0.1085
     36 H         4.458474   -3.846105   -2.158165 H        1 UNL1     0.0691
     37 H         1.4245   -2.920829   -5.085462 H        1 UNL1     0.0691
     38 H         3.211646   -6.874199   -7.31023 H        1 UNL1     0.0385
     39 H         4.614382   -6.543219   -8.34528 H        1 UNL1     0.0385
     40 H         2.630894   -5.062008   -8.836339 H        1 UNL1     0.0789
     41 H         3.079953   -2.082373   -8.033859 H        1 UNL1     0.0623
     42 H         4.593535   -0.412996   -9.026043 H        1 UNL1     0.0654
     43 H         7.272203   -3.544509   -10.237552 H        1 UNL1     0.0654
     44 H         5.81669   -5.212681   -9.235234 H        1 UNL1     0.0623
     45 H         7.72395   -1.100432   -10.028277 H        1 UNL1     0.2921
     46 H         6.039215   -6.086338   -4.277505 H        1 UNL1     0.2922
     47 H         2.708277   -0.120177   -1.978221 H        1 UNL1     0.2126
     48 H         -1.880517   0.678791   -0.474028 H        1 UNL1     0.2101
     49 H         -0.072662   -3.280575   0.2912 H        1 UNL1     0.2100
     50 H         -1.903262   -1.281669   -2.844719 H        1 UNL1     0.2102
@<TRIPOS>BOND
     1     1     2    1
     2     1     6    1
     3     2     3    1
     4     3     4    1
     5     3    29    1
     6     3    33    1
     7     4     5    1
     8     5     6    1
     9     5     7    1
    10     5    35    1
    11     7     8    1
    12     8     9   ar
    13     8    13   ar
    14     9    10   ar
    15     9    36    1
    16    10    11   ar
    17    10    26    1
    18    11    12   ar
    19    11    14    1
    20    12    13   ar
    21    12    17    1
    22    13    37    1
    23    14    15    1
    24    14    25    2
    25    15    16    1
    26    15    38    1
    27    15    39    1
    28    16    17    1
    29    16    18    1
    30    16    40    1
    31    18    19   ar
    32    18    23   ar
    33    19    20   ar
    34    19    41    1
    35    20    21   ar
    36    20    42    1
    37    21    22   ar
    38    21    24    1
    39    22    23   ar
    40    22    43    1
    41    23    44    1
    42    24    45    1
    43    26    46    1
    44    27    47    1
    45    28    48    1
    46    29    49    1
    47    30    50    1
    48     1    31    1
    49     1    27    1
    50     2    32    1
    51     2    28    1
    52     4    34    1
    53     4    30    1
