@<TRIPOS>MOLECULE
*****
 50 53 0 0 0
SMALL
GASTEIGER

@<TRIPOS>ATOM
     1 C         -0.605726   -0.792304   -1.943233 C.3        1 UNL1     0.1889
     2 C         -0.896831   -0.431378   -0.461703 C.3        1 UNL1     0.1342
     3 C         -1.388718   -1.604814   0.399435 C.3        1 UNL1     0.1174
     4 C         -2.269156   -2.584819   -0.38001 C.3        1 UNL1     0.1456
     5 C         -1.669194   -2.957698   -1.747991 C.3        1 UNL1     0.2326
     6 O         -1.448576   -1.779165   -2.519519 O.3        1 UNL1     -0.3076
     7 O         -0.504806   -3.798269   -1.653327 O.3        1 UNL1     -0.4605
     8 C         0.302304   -3.844588   -2.775805 C.ar        1 UNL1     0.1310
     9 C         1.640759   -4.251355   -2.795253 C.ar        1 UNL1     0.0226
     10 C         2.371222   -4.279924   -3.9892 C.ar        1 UNL1     0.1343
     11 C         1.773352   -3.924769   -5.19761 C.ar        1 UNL1     0.1007
     12 C         0.449451   -3.477661   -5.184759 C.ar        1 UNL1     0.1389
     13 C         -0.284021   -3.446505   -3.983726 C.ar        1 UNL1     0.0229
     14 C         2.473136   -4.01653   -6.49993 C.2        1 UNL1     0.1740
     15 C         1.615398   -3.810791   -7.71381 C.3        1 UNL1     0.0520
     16 C         0.638159   -2.679102   -7.427033 C.3        1 UNL1     0.1322
     17 O         -0.203536   -3.002122   -6.298194 O.3        1 UNL1     -0.4828
     18 C         1.297388   -1.299753   -7.352631 C.ar        1 UNL1     -0.0067
     19 C         1.931608   -0.898782   -6.158813 C.ar        1 UNL1     -0.0516
     20 C         2.502809   0.373967   -6.041331 C.ar        1 UNL1     -0.0198
     21 C         2.440088   1.255636   -7.105546 C.ar        1 UNL1     0.1169
     22 C         1.851758   0.877736   -8.305504 C.ar        1 UNL1     -0.0198
     23 C         1.296747   -0.401576   -8.429512 C.ar        1 UNL1     -0.0516
     24 O         2.973947   2.499998   -6.941357 O.3        1 UNL1     -0.5068
     25 O         3.658283   -4.319222   -6.610792 O.2        1 UNL1     -0.2917
     26 O         3.673018   -4.685476   -3.939805 O.3        1 UNL1     -0.5058
     27 O         0.763809   -1.057278   -2.201974 O.3        1 UNL1     -0.3648
     28 O         -1.920273   0.580726   -0.431431 O.3        1 UNL1     -0.3841
     29 O         -0.293265   -2.246378   1.055569 O.3        1 UNL1     -0.3863
     30 O         -3.568649   -1.990611   -0.589591 O.3        1 UNL1     -0.3829
     31 H         -0.82267   0.105444   -2.532355 H        1 UNL1     0.0937
     32 H         0.0   0.0   0.0 H        1 UNL1     0.0671
     33 H         -2.010309   -1.191445   1.205953 H        1 UNL1     0.0649
     34 H         -2.424549   -3.496537   0.207377 H        1 UNL1     0.0683
     35 H         -2.47099   -3.5185   -2.244481 H        1 UNL1     0.1085
     36 H         2.146064   -4.592731   -1.898453 H        1 UNL1     0.0691
     37 H         -1.312841   -3.093308   -4.000334 H        1 UNL1     0.0691
     38 H         1.086243   -4.749751   -7.908431 H        1 UNL1     0.0385
     39 H         2.257469   -3.595232   -8.574657 H        1 UNL1     0.0385
     40 H         -0.053482   -2.625065   -8.278638 H        1 UNL1     0.0789
     41 H         1.986024   -1.569122   -5.305974 H        1 UNL1     0.0623
     42 H         2.978577   0.675692   -5.111482 H        1 UNL1     0.0654
     43 H         1.810436   1.554919   -9.150269 H        1 UNL1     0.0654
     44 H         0.854507   -0.667039   -9.384917 H        1 UNL1     0.0623
     45 H         3.788753   2.555877   -7.466416 H        1 UNL1     0.2921
     46 H         3.930953   -4.833441   -3.016232 H        1 UNL1     0.2922
     47 H         1.095258   -1.73171   -1.59276 H        1 UNL1     0.2126
     48 H         -2.492246   0.377316   0.333555 H        1 UNL1     0.2101
     49 H         -0.625197   -2.841948   1.746157 H        1 UNL1     0.2100
     50 H         -3.488634   -1.027102   -0.431602 H        1 UNL1     0.2102
@<TRIPOS>BOND
     1     1     2    1
     2     1     6    1
     3     2     3    1
     4     3     4    1
     5     3    29    1
     6     3    33    1
     7     4     5    1
     8     5     6    1
     9     5     7    1
    10     5    35    1
    11     7     8    1
    12     8     9   ar
    13     8    13   ar
    14     9    10   ar
    15     9    36    1
    16    10    11   ar
    17    10    26    1
    18    11    12   ar
    19    11    14    1
    20    12    13   ar
    21    12    17    1
    22    13    37    1
    23    14    15    1
    24    14    25    2
    25    15    16    1
    26    15    38    1
    27    15    39    1
    28    16    17    1
    29    16    18    1
    30    16    40    1
    31    18    19   ar
    32    18    23   ar
    33    19    20   ar
    34    19    41    1
    35    20    21   ar
    36    20    42    1
    37    21    22   ar
    38    21    24    1
    39    22    23   ar
    40    22    43    1
    41    23    44    1
    42    24    45    1
    43    26    46    1
    44    27    47    1
    45    28    48    1
    46    29    49    1
    47    30    50    1
    48     1    31    1
    49     1    27    1
    50     2    32    1
    51     2    28    1
    52     4    34    1
    53     4    30    1
