@<TRIPOS>MOLECULE
*****
 50 53 0 0 0
SMALL
GASTEIGER

@<TRIPOS>ATOM
     1 C         -0.337291   -1.331661   1.698151 C.3        1 UNL1     0.1889
     2 C         -0.464594   -0.974986   0.192656 C.3        1 UNL1     0.1342
     3 C         -1.904513   -0.958518   -0.342909 C.3        1 UNL1     0.1174
     4 C         -2.793883   -2.017659   0.31311 C.3        1 UNL1     0.1456
     5 C         -2.644867   -2.046843   1.845202 C.3        1 UNL1     0.2326
     6 O         -1.280964   -2.268278   2.196775 O.3        1 UNL1     -0.3076
     7 O         -3.218743   -0.900245   2.498884 O.3        1 UNL1     -0.4605
     8 C         -3.731205   -1.11776   3.765216 C.ar        1 UNL1     0.1310
     9 C         -4.550299   -2.190061   4.13475 C.ar        1 UNL1     0.0226
     10 C         -5.005954   -2.332737   5.450776 C.ar        1 UNL1     0.1343
     11 C         -4.633683   -1.418664   6.435523 C.ar        1 UNL1     0.1007
     12 C         -3.849742   -0.321205   6.069732 C.ar        1 UNL1     0.1389
     13 C         -3.393887   -0.176529   4.745838 C.ar        1 UNL1     0.0229
     14 C         -5.017242   -1.567184   7.858541 C.2        1 UNL1     0.1740
     15 C         -4.348236   -0.622517   8.81331 C.3        1 UNL1     0.0520
     16 C         -4.275107   0.7509   8.160367 C.3        1 UNL1     0.1322
     17 O         -3.514383   0.695543   6.933458 O.3        1 UNL1     -0.4828
     18 C         -5.632793   1.446225   8.034133 C.ar        1 UNL1     -0.0067
     19 C         -6.007355   2.015187   6.799549 C.ar        1 UNL1     -0.0516
     20 C         -7.221052   2.69942   6.662704 C.ar        1 UNL1     -0.0198
     21 C         -8.063662   2.827643   7.752381 C.ar        1 UNL1     0.1169
     22 C         -7.737859   2.249442   8.972371 C.ar        1 UNL1     -0.0198
     23 C         -6.532719   1.549294   9.104603 C.ar        1 UNL1     -0.0516
     24 O         -9.21968   3.533359   7.591174 O.3        1 UNL1     -0.5068
     25 O         -5.768475   -2.448426   8.267866 O.2        1 UNL1     -0.2917
     26 O         -5.802858   -3.400237   5.745684 O.3        1 UNL1     -0.5058
     27 O         -0.231252   -0.195596   2.541298 O.3        1 UNL1     -0.3648
     28 O         0.26537   -1.953009   -0.571103 O.3        1 UNL1     -0.3841
     29 O         -2.459617   0.355963   -0.264611 O.3        1 UNL1     -0.3863
     30 O         -2.447904   -3.317886   -0.211672 O.3        1 UNL1     -0.3829
     31 H         0.622212   -1.846605   1.817589 H        1 UNL1     0.0937
     32 H         0.0   0.0   0.0 H        1 UNL1     0.0671
     33 H         -1.866167   -1.19564   -1.4153 H        1 UNL1     0.0649
     34 H         -3.843241   -1.836754   0.055191 H        1 UNL1     0.0683
     35 H         -3.20177   -2.942375   2.148124 H        1 UNL1     0.1085
     36 H         -4.828952   -2.964527   3.42858 H        1 UNL1     0.0691
     37 H         -2.785708   0.687366   4.48642 H        1 UNL1     0.0691
     38 H         -3.34702   -1.015078   9.020649 H        1 UNL1     0.0385
     39 H         -4.910077   -0.60465   9.753413 H        1 UNL1     0.0385
     40 H         -3.680149   1.393343   8.823549 H        1 UNL1     0.0789
     41 H         -5.359232   1.936193   5.931593 H        1 UNL1     0.0623
     42 H         -7.493156   3.144012   5.708603 H        1 UNL1     0.0654
     43 H         -8.397345   2.330888   9.828148 H        1 UNL1     0.0654
     44 H         -6.315085   1.101268   10.069358 H        1 UNL1     0.0623
     45 H         -8.991195   4.443144   7.340571 H        1 UNL1     0.2921
     46 H         -5.401972   -3.91451   6.464173 H        1 UNL1     0.2922
     47 H         0.511533   0.358813   2.264242 H        1 UNL1     0.2126
     48 H         1.200726   -1.877882   -0.300554 H        1 UNL1     0.2101
     49 H         -2.018718   0.938951   -0.90299 H        1 UNL1     0.2100
     50 H         -2.679605   -3.330287   -1.163446 H        1 UNL1     0.2102
@<TRIPOS>BOND
     1     1     2    1
     2     1     6    1
     3     2     3    1
     4     3     4    1
     5     3    29    1
     6     3    33    1
     7     4     5    1
     8     5     6    1
     9     5     7    1
    10     5    35    1
    11     7     8    1
    12     8     9   ar
    13     8    13   ar
    14     9    10   ar
    15     9    36    1
    16    10    11   ar
    17    10    26    1
    18    11    12   ar
    19    11    14    1
    20    12    13   ar
    21    12    17    1
    22    13    37    1
    23    14    15    1
    24    14    25    2
    25    15    16    1
    26    15    38    1
    27    15    39    1
    28    16    17    1
    29    16    18    1
    30    16    40    1
    31    18    19   ar
    32    18    23   ar
    33    19    20   ar
    34    19    41    1
    35    20    21   ar
    36    20    42    1
    37    21    22   ar
    38    21    24    1
    39    22    23   ar
    40    22    43    1
    41    23    44    1
    42    24    45    1
    43    26    46    1
    44    27    47    1
    45    28    48    1
    46    29    49    1
    47    30    50    1
    48     1    31    1
    49     1    27    1
    50     2    32    1
    51     2    28    1
    52     4    34    1
    53     4    30    1
