@<TRIPOS>MOLECULE
*****
 50 53 0 0 0
SMALL
GASTEIGER

@<TRIPOS>ATOM
     1 C         -0.370706   -1.397924   1.636823 C.3        1 UNL1     0.1889
     2 C         -0.487815   -0.971318   0.148793 C.3        1 UNL1     0.1342
     3 C         -1.926334   -0.896702   -0.385587 C.3        1 UNL1     0.1174
     4 C         -2.841323   -1.962709   0.222311 C.3        1 UNL1     0.1456
     5 C         -2.694767   -2.06395   1.751571 C.3        1 UNL1     0.2326
     6 O         -1.336899   -2.333232   2.092965 O.3        1 UNL1     -0.3076
     7 O         -3.242009   -0.934441   2.455883 O.3        1 UNL1     -0.4605
     8 C         -3.771147   -1.198191   3.706474 C.ar        1 UNL1     0.1310
     9 C         -4.620183   -2.265472   4.018485 C.ar        1 UNL1     0.0226
     10 C         -5.091103   -2.458277   5.322694 C.ar        1 UNL1     0.1343
     11 C         -4.704893   -1.601357   6.352438 C.ar        1 UNL1     0.1007
     12 C         -3.8904   -0.508235   6.045081 C.ar        1 UNL1     0.1389
     13 C         -3.419159   -0.313067   4.733108 C.ar        1 UNL1     0.0229
     14 C         -5.104853   -1.806871   7.763803 C.2        1 UNL1     0.1740
     15 C         -4.420976   -0.925554   8.767367 C.3        1 UNL1     0.0520
     16 C         -4.307533   0.474765   8.180686 C.3        1 UNL1     0.1322
     17 O         -3.537423   0.45785   6.95851 O.3        1 UNL1     -0.4828
     18 C         -5.646153   1.209641   8.076875 C.ar        1 UNL1     -0.0067
     19 C         -5.661381   2.57416   7.721811 C.ar        1 UNL1     -0.0516
     20 C         -6.864331   3.287978   7.664026 C.ar        1 UNL1     -0.0198
     21 C         -8.055315   2.651988   7.965524 C.ar        1 UNL1     0.1169
     22 C         -8.076118   1.30079   8.285946 C.ar        1 UNL1     -0.0198
     23 C         -6.87526   0.582177   8.32583 C.ar        1 UNL1     -0.0516
     24 O         -9.202742   3.388812   7.935485 O.3        1 UNL1     -0.5068
     25 O         -5.881616   -2.686969   8.125123 O.2        1 UNL1     -0.2917
     26 O         -5.917165   -3.517816   5.560565 O.3        1 UNL1     -0.5058
     27 O         -0.238689   -0.303563   2.529982 O.3        1 UNL1     -0.3648
     28 O         0.219596   -1.931251   -0.657931 O.3        1 UNL1     -0.3841
     29 O         -2.450179   0.425775   -0.248567 O.3        1 UNL1     -0.3863
     30 O         -2.525703   -3.246004   -0.360121 O.3        1 UNL1     -0.3829
     31 H         0.576173   -1.940343   1.733152 H        1 UNL1     0.0937
     32 H         0.0   0.0   0.0 H        1 UNL1     0.0671
     33 H         -1.892418   -1.086445   -1.467515 H        1 UNL1     0.0649
     34 H         -3.885802   -1.745569   -0.027317 H        1 UNL1     0.0683
     35 H         -3.273102   -2.958657   2.014071 H        1 UNL1     0.1085
     36 H         -4.911812   -2.998484   3.27433 H        1 UNL1     0.0691
     37 H         -2.787184   0.546299   4.519587 H        1 UNL1     0.0691
     38 H         -3.431833   -1.352832   8.963724 H        1 UNL1     0.0385
     39 H         -4.990632   -0.937644   9.702848 H        1 UNL1     0.0385
     40 H         -3.702636   1.069905   8.87813 H        1 UNL1     0.0789
     41 H         -4.738994   3.098472   7.489538 H        1 UNL1     0.0623
     42 H         -6.861728   4.342763   7.400525 H        1 UNL1     0.0654
     43 H         -9.00476   0.789208   8.509148 H        1 UNL1     0.0654
     44 H         -6.9298   -0.474456   8.569547 H        1 UNL1     0.0623
     45 H         -9.155007   4.059434   8.635988 H        1 UNL1     0.2921
     46 H         -5.704083   -3.906809   6.423521 H        1 UNL1     0.2922
     47 H         0.506451   0.254786   2.267546 H        1 UNL1     0.2126
     48 H         1.171761   -1.77931   -0.502918 H        1 UNL1     0.2101
     49 H         -2.143503   0.980029   -0.983785 H        1 UNL1     0.2100
     50 H         -2.782795   -3.219674   -1.305067 H        1 UNL1     0.2102
@<TRIPOS>BOND
     1     1     2    1
     2     1     6    1
     3     2     3    1
     4     3     4    1
     5     3    29    1
     6     3    33    1
     7     4     5    1
     8     5     6    1
     9     5     7    1
    10     5    35    1
    11     7     8    1
    12     8     9   ar
    13     8    13   ar
    14     9    10   ar
    15     9    36    1
    16    10    11   ar
    17    10    26    1
    18    11    12   ar
    19    11    14    1
    20    12    13   ar
    21    12    17    1
    22    13    37    1
    23    14    15    1
    24    14    25    2
    25    15    16    1
    26    15    38    1
    27    15    39    1
    28    16    17    1
    29    16    18    1
    30    16    40    1
    31    18    19   ar
    32    18    23   ar
    33    19    20   ar
    34    19    41    1
    35    20    21   ar
    36    20    42    1
    37    21    22   ar
    38    21    24    1
    39    22    23   ar
    40    22    43    1
    41    23    44    1
    42    24    45    1
    43    26    46    1
    44    27    47    1
    45    28    48    1
    46    29    49    1
    47    30    50    1
    48     1    31    1
    49     1    27    1
    50     2    32    1
    51     2    28    1
    52     4    34    1
    53     4    30    1
