@<TRIPOS>MOLECULE
*****
 50 53 0 0 0
SMALL
GASTEIGER

@<TRIPOS>ATOM
     1 C         -0.086931   -1.036164   1.920836 C.3        1 UNL1     0.1889
     2 C         -0.56104   -0.82409   0.457899 C.3        1 UNL1     0.1342
     3 C         -2.065381   -0.55234   0.304361 C.3        1 UNL1     0.1174
     4 C         -2.91357   -1.315903   1.32449 C.3        1 UNL1     0.1456
     5 C         -2.35237   -1.212139   2.754403 C.3        1 UNL1     0.2326
     6 O         -1.007949   -1.685949   2.78449 O.3        1 UNL1     -0.3076
     7 O         -2.504744   0.095242   3.336518 O.3        1 UNL1     -0.4605
     8 C         -2.675521   0.131684   4.708756 C.ar        1 UNL1     0.1310
     9 C         -3.539427   -0.690696   5.439958 C.ar        1 UNL1     0.0226
     10 C         -3.629266   -0.588675   6.833308 C.ar        1 UNL1     0.1343
     11 C         -2.839043   0.322823   7.532278 C.ar        1 UNL1     0.1007
     12 C         -2.002711   1.17766   6.809376 C.ar        1 UNL1     0.1389
     13 C         -1.914509   1.076691   5.408142 C.ar        1 UNL1     0.0229
     14 C         -2.83218   0.414978   9.01066 C.2        1 UNL1     0.1740
     15 C         -1.764814   1.288378   9.601804 C.3        1 UNL1     0.0520
     16 C         -1.628999   2.534744   8.738044 C.3        1 UNL1     0.1322
     17 O         -1.262387   2.183803   7.385451 O.3        1 UNL1     -0.4828
     18 C         -2.81923   3.491128   8.84484 C.ar        1 UNL1     -0.0067
     19 C         -3.412914   3.992029   7.668043 C.ar        1 UNL1     -0.0516
     20 C         -4.472259   4.905185   7.730469 C.ar        1 UNL1     -0.0198
     21 C         -4.941096   5.329896   8.960769 C.ar        1 UNL1     0.1169
     22 C         -4.399139   4.829075   10.137332 C.ar        1 UNL1     -0.0198
     23 C         -3.352027   3.901845   10.075219 C.ar        1 UNL1     -0.0516
     24 O         -5.948913   6.248729   8.982031 O.3        1 UNL1     -0.5068
     25 O         -3.586458   -0.232544   9.731955 O.2        1 UNL1     -0.2917
     26 O         -4.492115   -1.419238   7.486944 O.3        1 UNL1     -0.5058
     27 O         0.452901   0.133415   2.515356 O.3        1 UNL1     -0.3648
     28 O         -0.261528   -2.013712   -0.295627 O.3        1 UNL1     -0.3841
     29 O         -2.329637   0.852047   0.305377 O.3        1 UNL1     -0.3863
     30 O         -2.968144   -2.708901   0.947305 O.3        1 UNL1     -0.3829
     31 H         0.758374   -1.731654   1.878023 H        1 UNL1     0.0937
     32 H         0.0   0.0   0.0 H        1 UNL1     0.0671
     33 H         -2.370184   -0.905859   -0.690546 H        1 UNL1     0.0649
     34 H         -3.942538   -0.939791   1.31164 H        1 UNL1     0.0683
     35 H         -2.955476   -1.927226   3.327807 H        1 UNL1     0.1085
     36 H         -4.138647   -1.457217   4.960895 H        1 UNL1     0.0691
     37 H         -1.256654   1.754603   4.868552 H        1 UNL1     0.0691
     38 H         -0.833594   0.711976   9.612661 H        1 UNL1     0.0385
     39 H         -2.030301   1.528886   10.636913 H        1 UNL1     0.0385
     40 H         -0.767193   3.099755   9.118271 H        1 UNL1     0.0789
     41 H         -3.057024   3.681195   6.690098 H        1 UNL1     0.0623
     42 H         -4.913801   5.293254   6.81589 H        1 UNL1     0.0654
     43 H         -4.768692   5.143452   11.106098 H        1 UNL1     0.0654
     44 H         -2.959531   3.523439   11.014155 H        1 UNL1     0.0623
     45 H         -5.63852   7.054715   8.538454 H        1 UNL1     0.2921
     46 H         -4.007172   -1.928222   8.155658 H        1 UNL1     0.2922
     47 H         1.176884   0.479906   1.975307 H        1 UNL1     0.2126
     48 H         0.70885   -2.121561   -0.274031 H        1 UNL1     0.2101
     49 H         -1.985733   1.25315   -0.50865 H        1 UNL1     0.2100
     50 H         -3.453552   -2.772711   0.098766 H        1 UNL1     0.2102
@<TRIPOS>BOND
     1     1     2    1
     2     1     6    1
     3     2     3    1
     4     3     4    1
     5     3    29    1
     6     3    33    1
     7     4     5    1
     8     5     6    1
     9     5     7    1
    10     5    35    1
    11     7     8    1
    12     8     9   ar
    13     8    13   ar
    14     9    10   ar
    15     9    36    1
    16    10    11   ar
    17    10    26    1
    18    11    12   ar
    19    11    14    1
    20    12    13   ar
    21    12    17    1
    22    13    37    1
    23    14    15    1
    24    14    25    2
    25    15    16    1
    26    15    38    1
    27    15    39    1
    28    16    17    1
    29    16    18    1
    30    16    40    1
    31    18    19   ar
    32    18    23   ar
    33    19    20   ar
    34    19    41    1
    35    20    21   ar
    36    20    42    1
    37    21    22   ar
    38    21    24    1
    39    22    23   ar
    40    22    43    1
    41    23    44    1
    42    24    45    1
    43    26    46    1
    44    27    47    1
    45    28    48    1
    46    29    49    1
    47    30    50    1
    48     1    31    1
    49     1    27    1
    50     2    32    1
    51     2    28    1
    52     4    34    1
    53     4    30    1
