@<TRIPOS>MOLECULE
*****
 50 53 0 0 0
SMALL
GASTEIGER

@<TRIPOS>ATOM
     1 C         -0.331077   -1.327552   1.702585 C.3        1 UNL1     0.1889
     2 C         -0.462051   -0.975463   0.196326 C.3        1 UNL1     0.1342
     3 C         -1.903023   -0.963727   -0.336523 C.3        1 UNL1     0.1174
     4 C         -2.788774   -2.022965   0.324217 C.3        1 UNL1     0.1456
     5 C         -2.636768   -2.047442   1.856098 C.3        1 UNL1     0.2326
     6 O         -1.271705   -2.264837   2.205686 O.3        1 UNL1     -0.3076
     7 O         -3.211949   -0.90026   2.507606 O.3        1 UNL1     -0.4605
     8 C         -3.72108   -1.115191   3.775722 C.ar        1 UNL1     0.1310
     9 C         -4.536772   -2.188336   4.150296 C.ar        1 UNL1     0.0226
     10 C         -4.989166   -2.328141   5.467754 C.ar        1 UNL1     0.1343
     11 C         -4.616913   -1.410219   6.448921 C.ar        1 UNL1     0.1007
     12 C         -3.836425   -0.31199   6.078091 C.ar        1 UNL1     0.1389
     13 C         -3.383853   -0.170206   4.752759 C.ar        1 UNL1     0.0229
     14 C         -4.996961   -1.555374   7.873227 C.2        1 UNL1     0.1740
     15 C         -4.328114   -0.606237   8.823664 C.3        1 UNL1     0.0520
     16 C         -4.259733   0.76538   8.166436 C.3        1 UNL1     0.1322
     17 O         -3.501598   0.708155   6.938012 O.3        1 UNL1     -0.4828
     18 C         -5.619363   1.457065   8.041133 C.ar        1 UNL1     -0.0067
     19 C         -5.999205   2.018955   6.804923 C.ar        1 UNL1     -0.0516
     20 C         -7.214857   2.699812   6.668593 C.ar        1 UNL1     -0.0198
     21 C         -8.054197   2.831682   7.760356 C.ar        1 UNL1     0.1169
     22 C         -7.723141   2.260373   8.982177 C.ar        1 UNL1     -0.0198
     23 C         -6.516026   1.563559   9.114003 C.ar        1 UNL1     -0.0516
     24 O         -9.212298   3.534026   7.599369 O.3        1 UNL1     -0.5068
     25 O         -5.745164   -2.437178   8.286867 O.2        1 UNL1     -0.2917
     26 O         -5.782847   -3.396657   5.767639 O.3        1 UNL1     -0.5058
     27 O         -0.225961   -0.18885   2.542284 O.3        1 UNL1     -0.3648
     28 O         0.268632   -1.954038   -0.566039 O.3        1 UNL1     -0.3841
     29 O         -2.460906   0.349734   -0.260911 O.3        1 UNL1     -0.3863
     30 O         -2.4409   -3.323914   -0.197516 O.3        1 UNL1     -0.3829
     31 H         0.629799   -1.840017   1.821652 H        1 UNL1     0.0937
     32 H         0.0   0.0   0.0 H        1 UNL1     0.0671
     33 H         -1.866197   -1.203825   -1.408305 H        1 UNL1     0.0649
     34 H         -3.839024   -1.845132   0.067796 H        1 UNL1     0.0683
     35 H         -3.191092   -2.943341   2.16264 H        1 UNL1     0.1085
     36 H         -4.815126   -2.965589   3.447077 H        1 UNL1     0.0691
     37 H         -2.778329   0.69436   4.489396 H        1 UNL1     0.0691
     38 H         -3.3255   -0.99577   9.029956 H        1 UNL1     0.0385
     39 H         -4.887912   -0.586887   9.764956 H        1 UNL1     0.0385
     40 H         -3.664853   1.411241   8.826362 H        1 UNL1     0.0789
     41 H         -5.353738   1.937005   5.935264 H        1 UNL1     0.0623
     42 H         -7.491052   3.138976   5.713155 H        1 UNL1     0.0654
     43 H         -8.380017   2.344689   9.839683 H        1 UNL1     0.0654
     44 H         -6.294257   1.120895   10.08029 H        1 UNL1     0.0623
     45 H         -8.98681   4.441523   7.337988 H        1 UNL1     0.2921
     46 H         -5.378443   -3.908579   6.485835 H        1 UNL1     0.2922
     47 H         0.516751   0.365005   2.263925 H        1 UNL1     0.2126
     48 H         1.2016   -1.887732   -0.285133 H        1 UNL1     0.2101
     49 H         -2.022409   0.931919   -0.901673 H        1 UNL1     0.2100
     50 H         -2.674391   -3.339548   -1.148805 H        1 UNL1     0.2102
@<TRIPOS>BOND
     1     1     2    1
     2     1     6    1
     3     2     3    1
     4     3     4    1
     5     3    29    1
     6     3    33    1
     7     4     5    1
     8     5     6    1
     9     5     7    1
    10     5    35    1
    11     7     8    1
    12     8     9   ar
    13     8    13   ar
    14     9    10   ar
    15     9    36    1
    16    10    11   ar
    17    10    26    1
    18    11    12   ar
    19    11    14    1
    20    12    13   ar
    21    12    17    1
    22    13    37    1
    23    14    15    1
    24    14    25    2
    25    15    16    1
    26    15    38    1
    27    15    39    1
    28    16    17    1
    29    16    18    1
    30    16    40    1
    31    18    19   ar
    32    18    23   ar
    33    19    20   ar
    34    19    41    1
    35    20    21   ar
    36    20    42    1
    37    21    22   ar
    38    21    24    1
    39    22    23   ar
    40    22    43    1
    41    23    44    1
    42    24    45    1
    43    26    46    1
    44    27    47    1
    45    28    48    1
    46    29    49    1
    47    30    50    1
    48     1    31    1
    49     1    27    1
    50     2    32    1
    51     2    28    1
    52     4    34    1
    53     4    30    1
