@<TRIPOS>MOLECULE
*****
 50 53 0 0 0
SMALL
GASTEIGER

@<TRIPOS>ATOM
     1 C         0.242455   -1.677008   1.378283 C.3        1 UNL1     0.1889
     2 C         -0.578406   -0.499444   0.787124 C.3        1 UNL1     0.1342
     3 C         -1.031343   0.547073   1.816743 C.3        1 UNL1     0.1174
     4 C         -1.366704   -0.066473   3.178438 C.3        1 UNL1     0.1456
     5 C         -0.295001   -1.062916   3.65689 C.3        1 UNL1     0.2326
     6 O         -0.121114   -2.092889   2.686433 O.3        1 UNL1     -0.3076
     7 O         0.940888   -0.434227   4.042443 O.3        1 UNL1     -0.4605
     8 C         0.929278   0.948269   4.088229 C.ar        1 UNL1     0.1310
     9 C         -0.116015   1.765028   3.643744 C.ar        1 UNL1     0.0226
     10 C         -0.040183   3.15898   3.748863 C.ar        1 UNL1     0.1343
     11 C         1.07382   3.769501   4.323406 C.ar        1 UNL1     0.1007
     12 C         2.141523   2.966573   4.733408 C.ar        1 UNL1     0.1389
     13 C         2.066152   1.565132   4.625182 C.ar        1 UNL1     0.0229
     14 C         1.170481   5.232272   4.535807 C.2        1 UNL1     0.1740
     15 C         2.333205   5.692498   5.365152 C.3        1 UNL1     0.0520
     16 C         3.556677   4.874401   4.975549 C.3        1 UNL1     0.1322
     17 O         3.329599   3.467546   5.21275 O.3        1 UNL1     -0.4828
     18 C         4.099904   5.203325   3.582912 C.ar        1 UNL1     -0.0067
     19 C         3.515495   6.250427   2.84112 C.ar        1 UNL1     -0.0516
     20 C         3.956755   6.546418   1.545882 C.ar        1 UNL1     -0.0198
     21 C         4.974372   5.799593   0.979723 C.ar        1 UNL1     0.1169
     22 C         5.592253   4.783974   1.697762 C.ar        1 UNL1     -0.0198
     23 C         5.163655   4.499801   2.999916 C.ar        1 UNL1     -0.0516
     24 O         5.351923   6.092311   -0.297842 O.3        1 UNL1     -0.5068
     25 O         0.325284   6.030353   4.139333 O.2        1 UNL1     -0.2917
     26 O         -1.093296   3.898628   3.295586 O.3        1 UNL1     -0.5058
     27 O         1.645426   -1.506825   1.253789 O.3        1 UNL1     -0.3648
     28 O         -1.764057   -1.03441   0.170075 O.3        1 UNL1     -0.3841
     29 O         -0.08292   1.612102   1.908061 O.3        1 UNL1     -0.3863
     30 O         -2.63327   -0.754586   3.088996 O.3        1 UNL1     -0.3829
     31 H         0.021291   -2.553929   0.76008 H        1 UNL1     0.0937
     32 H         0.0   0.0   0.0 H        1 UNL1     0.0671
     33 H         -1.954442   1.009865   1.440671 H        1 UNL1     0.0649
     34 H         -1.484173   0.725234   3.926637 H        1 UNL1     0.0683
     35 H         -0.744955   -1.530822   4.541471 H        1 UNL1     0.1085
     36 H         -1.032184   1.349042   3.239133 H        1 UNL1     0.0691
     37 H         2.91137   0.962472   4.950606 H        1 UNL1     0.0691
     38 H         2.072114   5.536014   6.417232 H        1 UNL1     0.0385
     39 H         2.48494   6.765594   5.206344 H        1 UNL1     0.0385
     40 H         4.361673   5.143917   5.672587 H        1 UNL1     0.0789
     41 H         2.708998   6.845422   3.259682 H        1 UNL1     0.0623
     42 H         3.490035   7.348573   0.979551 H        1 UNL1     0.0654
     43 H         6.400186   4.202738   1.269603 H        1 UNL1     0.0654
     44 H         5.675996   3.706539   3.535721 H        1 UNL1     0.0623
     45 H         4.776045   6.798187   -0.633729 H        1 UNL1     0.2921
     46 H         -1.355889   4.538517   3.976025 H        1 UNL1     0.2922
     47 H         1.842275   -0.693276   0.768765 H        1 UNL1     0.2126
     48 H         -2.516058   -0.511843   0.509412 H        1 UNL1     0.2101
     49 H         -0.33487   2.217963   2.623076 H        1 UNL1     0.2100
     50 H         -3.334658   -0.080984   2.970555 H        1 UNL1     0.2102
@<TRIPOS>BOND
     1     1     2    1
     2     1     6    1
     3     2     3    1
     4     3     4    1
     5     3    29    1
     6     3    33    1
     7     4     5    1
     8     5     6    1
     9     5     7    1
    10     5    35    1
    11     7     8    1
    12     8     9   ar
    13     8    13   ar
    14     9    10   ar
    15     9    36    1
    16    10    11   ar
    17    10    26    1
    18    11    12   ar
    19    11    14    1
    20    12    13   ar
    21    12    17    1
    22    13    37    1
    23    14    15    1
    24    14    25    2
    25    15    16    1
    26    15    38    1
    27    15    39    1
    28    16    17    1
    29    16    18    1
    30    16    40    1
    31    18    19   ar
    32    18    23   ar
    33    19    20   ar
    34    19    41    1
    35    20    21   ar
    36    20    42    1
    37    21    22   ar
    38    21    24    1
    39    22    23   ar
    40    22    43    1
    41    23    44    1
    42    24    45    1
    43    26    46    1
    44    27    47    1
    45    28    48    1
    46    29    49    1
    47    30    50    1
    48     1    31    1
    49     1    27    1
    50     2    32    1
    51     2    28    1
    52     4    34    1
    53     4    30    1
