@<TRIPOS>MOLECULE
*****
 50 53 0 0 0
SMALL
GASTEIGER

@<TRIPOS>ATOM
     1 C         -0.868944   -1.756016   -0.965478 C.3        1 UNL1     0.1889
     2 C         -0.674978   -0.824486   0.261131 C.3        1 UNL1     0.1342
     3 C         -0.14539   -1.525649   1.521437 C.3        1 UNL1     0.1174
     4 C         -0.670244   -2.955908   1.669774 C.3        1 UNL1     0.1456
     5 C         -0.572492   -3.759292   0.360048 C.3        1 UNL1     0.2326
     6 O         -1.279671   -3.084567   -0.677985 O.3        1 UNL1     -0.3076
     7 O         0.777574   -4.100065   -0.003981 O.3        1 UNL1     -0.4605
     8 C         1.45842   -3.159616   -0.756 C.ar        1 UNL1     0.1310
     9 C         2.666896   -2.554056   -0.395191 C.ar        1 UNL1     0.0226
     10 C         3.288903   -1.622763   -1.235253 C.ar        1 UNL1     0.1343
     11 C         2.729043   -1.291897   -2.468511 C.ar        1 UNL1     0.1007
     12 C         1.501698   -1.859174   -2.821507 C.ar        1 UNL1     0.1389
     13 C         0.875144   -2.793565   -1.975473 C.ar        1 UNL1     0.0229
     14 C         3.385597   -0.378013   -3.43179 C.2        1 UNL1     0.1740
     15 C         2.758071   -0.309668   -4.793073 C.3        1 UNL1     0.0520
     16 C         1.244703   -0.317895   -4.62692 C.3        1 UNL1     0.1322
     17 O         0.808466   -1.523585   -3.961277 O.3        1 UNL1     -0.4828
     18 C         0.683332   0.974873   -4.029981 C.ar        1 UNL1     -0.0067
     19 C         1.571167   1.948934   -3.528813 C.ar        1 UNL1     -0.0516
     20 C         1.089929   3.121102   -2.933503 C.ar        1 UNL1     -0.0198
     21 C         -0.273894   3.327159   -2.826946 C.ar        1 UNL1     0.1169
     22 C         -1.172969   2.401887   -3.34112 C.ar        1 UNL1     -0.0198
     23 C         -0.691851   1.238211   -3.953034 C.ar        1 UNL1     -0.0516
     24 O         -0.705646   4.462844   -2.207099 O.3        1 UNL1     -0.5068
     25 O         4.421998   0.233184   -3.185221 O.2        1 UNL1     -0.2917
     26 O         4.465543   -1.067663   -0.824198 O.3        1 UNL1     -0.5058
     27 O         0.22093   -1.729628   -1.873368 O.3        1 UNL1     -0.3648
     28 O         -1.948033   -0.242442   0.597675 O.3        1 UNL1     -0.3841
     29 O         1.280345   -1.450203   1.582426 O.3        1 UNL1     -0.3863
     30 O         -2.052618   -2.912516   2.085526 O.3        1 UNL1     -0.3829
     31 H         -1.707816   -1.347155   -1.539241 H        1 UNL1     0.0937
     32 H         0.0   0.0   0.0 H        1 UNL1     0.0671
     33 H         -0.504942   -0.963051   2.394321 H        1 UNL1     0.0649
     34 H         -0.11508   -3.478266   2.456753 H        1 UNL1     0.0683
     35 H         -1.124979   -4.682727   0.574301 H        1 UNL1     0.1085
     36 H         3.180914   -2.810543   0.524656 H        1 UNL1     0.0691
     37 H         -0.0805   -3.219991   -2.272794 H        1 UNL1     0.0691
     38 H         3.098052   -1.18372   -5.358734 H        1 UNL1     0.0385
     39 H         3.113266   0.589882   -5.307294 H        1 UNL1     0.0385
     40 H         0.808981   -0.38665   -5.632871 H        1 UNL1     0.0789
     41 H         2.646044   1.806544   -3.59218 H        1 UNL1     0.0623
     42 H         1.784577   3.859167   -2.540138 H        1 UNL1     0.0654
     43 H         -2.242846   2.560303   -3.276481 H        1 UNL1     0.0654
     44 H         -1.422557   0.541933   -4.353171 H        1 UNL1     0.0623
     45 H         -0.306952   4.499989   -1.322577 H        1 UNL1     0.2921
     46 H         5.121355   -1.135472   -1.536044 H        1 UNL1     0.2922
     47 H         0.457908   -0.816016   -2.085535 H        1 UNL1     0.2126
     48 H         -2.482625   -0.247344   -0.219588 H        1 UNL1     0.2101
     49 H         1.656286   -1.589265   0.698614 H        1 UNL1     0.2100
     50 H         -2.608822   -3.113058   1.304417 H        1 UNL1     0.2102
@<TRIPOS>BOND
     1     1     2    1
     2     1     6    1
     3     2     3    1
     4     3     4    1
     5     3    29    1
     6     3    33    1
     7     4     5    1
     8     5     6    1
     9     5     7    1
    10     5    35    1
    11     7     8    1
    12     8     9   ar
    13     8    13   ar
    14     9    10   ar
    15     9    36    1
    16    10    11   ar
    17    10    26    1
    18    11    12   ar
    19    11    14    1
    20    12    13   ar
    21    12    17    1
    22    13    37    1
    23    14    15    1
    24    14    25    2
    25    15    16    1
    26    15    38    1
    27    15    39    1
    28    16    17    1
    29    16    18    1
    30    16    40    1
    31    18    19   ar
    32    18    23   ar
    33    19    20   ar
    34    19    41    1
    35    20    21   ar
    36    20    42    1
    37    21    22   ar
    38    21    24    1
    39    22    23   ar
    40    22    43    1
    41    23    44    1
    42    24    45    1
    43    26    46    1
    44    27    47    1
    45    28    48    1
    46    29    49    1
    47    30    50    1
    48     1    31    1
    49     1    27    1
    50     2    32    1
    51     2    28    1
    52     4    34    1
    53     4    30    1
