@<TRIPOS>MOLECULE
*****
 50 53 0 0 0
SMALL
GASTEIGER

@<TRIPOS>ATOM
     1 C         -0.789032   0.481305   1.979035 C.3        1 UNL1     0.1889
     2 C         -0.899402   0.457264   0.430752 C.3        1 UNL1     0.1342
     3 C         -1.122163   1.83218   -0.217668 C.3        1 UNL1     0.1174
     4 C         -1.989153   2.758685   0.638505 C.3        1 UNL1     0.1456
     5 C         -1.557311   2.772362   2.116236 C.3        1 UNL1     0.2326
     6 O         -1.588547   1.448231   2.644035 O.3        1 UNL1     -0.3076
     7 O         -0.303077   3.441556   2.340727 O.3        1 UNL1     -0.4605
     8 C         -0.214862   4.738569   1.867966 C.ar        1 UNL1     0.1310
     9 C         0.908728   5.302728   1.254312 C.ar        1 UNL1     0.0226
     10 C         0.894071   6.624197   0.792352 C.ar        1 UNL1     0.1343
     11 C         -0.253623   7.406776   0.911555 C.ar        1 UNL1     0.1007
     12 C         -1.368334   6.867803   1.559407 C.ar        1 UNL1     0.1389
     13 C         -1.352463   5.539912   2.026187 C.ar        1 UNL1     0.0229
     14 C         -0.351872   8.780466   0.366142 C.2        1 UNL1     0.1740
     15 C         -1.722878   9.390006   0.38497 C.3        1 UNL1     0.0520
     16 C         -2.397634   9.017786   1.698025 C.3        1 UNL1     0.1322
     17 O         -2.512196   7.583465   1.82713 O.3        1 UNL1     -0.4828
     18 C         -1.797902   9.718754   2.919371 C.ar        1 UNL1     -0.0067
     19 C         -0.442972   10.108538   2.898227 C.ar        1 UNL1     -0.0516
     20 C         0.149294   10.708882   4.015711 C.ar        1 UNL1     -0.0198
     21 C         -0.599032   10.917711   5.160362 C.ar        1 UNL1     0.1169
     22 C         -1.944384   10.575239   5.200101 C.ar        1 UNL1     -0.0198
     23 C         -2.541703   9.991724   4.076368 C.ar        1 UNL1     -0.0516
     24 O         0.021687   11.470292   6.241918 O.3        1 UNL1     -0.5068
     25 O         0.593382   9.373318   -0.147187 O.2        1 UNL1     -0.2917
     26 O         2.023131   7.114779   0.204019 O.3        1 UNL1     -0.5058
     27 O         0.549075   0.494479   2.450294 O.3        1 UNL1     -0.3648
     28 O         -2.016498   -0.374444   0.065972 O.3        1 UNL1     -0.3841
     29 O         0.123781   2.425973   -0.58803 O.3        1 UNL1     -0.3863
     30 O         -3.364748   2.325763   0.560987 O.3        1 UNL1     -0.3829
     31 H         -1.191317   -0.472995   2.336186 H        1 UNL1     0.0937
     32 H         0.0   0.0   -0.0 H        1 UNL1     0.0671
     33 H         -1.662134   1.674208   -1.1617 H        1 UNL1     0.0649
     34 H         -1.951365   3.779048   0.241221 H        1 UNL1     0.0683
     35 H         -2.353606   3.335118   2.619325 H        1 UNL1     0.1085
     36 H         1.812595   4.728842   1.08168 H        1 UNL1     0.0691
     37 H         -2.232827   5.144283   2.528113 H        1 UNL1     0.0691
     38 H         -2.275689   8.988308   -0.470931 H        1 UNL1     0.0385
     39 H         -1.63538   10.474351   0.257232 H        1 UNL1     0.0385
     40 H         -3.435756   9.372034   1.640305 H        1 UNL1     0.0789
     41 H         0.168194   9.947157   2.015004 H        1 UNL1     0.0623
     42 H         1.198123   10.994134   3.991179 H        1 UNL1     0.0654
     43 H         -2.543533   10.74807   6.086138 H        1 UNL1     0.0654
     44 H         -3.597544   9.746489   4.13887 H        1 UNL1     0.0623
     45 H         -0.470866   11.218692   7.039919 H        1 UNL1     0.2921
     46 H         2.471966   7.717545   0.817723 H        1 UNL1     0.2922
     47 H         0.868829   1.404452   2.524895 H        1 UNL1     0.2126
     48 H         -2.484244   0.086643   -0.656762 H        1 UNL1     0.2101
     49 H         0.158356   3.343546   -0.273932 H        1 UNL1     0.2100
     50 H         -3.5755   1.841846   1.386287 H        1 UNL1     0.2102
@<TRIPOS>BOND
     1     1     2    1
     2     1     6    1
     3     2     3    1
     4     3     4    1
     5     3    29    1
     6     3    33    1
     7     4     5    1
     8     5     6    1
     9     5     7    1
    10     5    35    1
    11     7     8    1
    12     8     9   ar
    13     8    13   ar
    14     9    10   ar
    15     9    36    1
    16    10    11   ar
    17    10    26    1
    18    11    12   ar
    19    11    14    1
    20    12    13   ar
    21    12    17    1
    22    13    37    1
    23    14    15    1
    24    14    25    2
    25    15    16    1
    26    15    38    1
    27    15    39    1
    28    16    17    1
    29    16    18    1
    30    16    40    1
    31    18    19   ar
    32    18    23   ar
    33    19    20   ar
    34    19    41    1
    35    20    21   ar
    36    20    42    1
    37    21    22   ar
    38    21    24    1
    39    22    23   ar
    40    22    43    1
    41    23    44    1
    42    24    45    1
    43    26    46    1
    44    27    47    1
    45    28    48    1
    46    29    49    1
    47    30    50    1
    48     1    31    1
    49     1    27    1
    50     2    32    1
    51     2    28    1
    52     4    34    1
    53     4    30    1
