@<TRIPOS>MOLECULE
*****
 50 53 0 0 0
SMALL
GASTEIGER

@<TRIPOS>ATOM
     1 C         -0.348704   -1.337744   1.69105 C.3        1 UNL1     0.1889
     2 C         -0.470734   -0.973137   0.187019 C.3        1 UNL1     0.1342
     3 C         -1.9094   -0.945615   -0.35145 C.3        1 UNL1     0.1174
     4 C         -2.806372   -2.002611   0.29764 C.3        1 UNL1     0.1456
     5 C         -2.660757   -2.039992   1.829881 C.3        1 UNL1     0.2326
     6 O         -1.298925   -2.271147   2.183222 O.3        1 UNL1     -0.3076
     7 O         -3.229244   -0.893163   2.487853 O.3        1 UNL1     -0.4605
     8 C         -3.752437   -1.115299   3.748984 C.ar        1 UNL1     0.1310
     9 C         -4.583364   -2.183048   4.105037 C.ar        1 UNL1     0.0226
     10 C         -5.049453   -2.331201   5.416796 C.ar        1 UNL1     0.1343
     11 C         -4.676188   -1.42751   6.410705 C.ar        1 UNL1     0.1007
     12 C         -3.880221   -0.334325   6.058333 C.ar        1 UNL1     0.1389
     13 C         -3.413858   -0.184116   4.738722 C.ar        1 UNL1     0.0229
     14 C         -5.070988   -1.582904   7.829909 C.2        1 UNL1     0.1740
     15 C         -4.40053   -0.650991   8.796126 C.3        1 UNL1     0.0520
     16 C         -4.310926   0.726393   8.153678 C.3        1 UNL1     0.1322
     17 O         -3.542127   0.673228   6.931716 O.3        1 UNL1     -0.4828
     18 C         -5.661617   1.434416   8.023057 C.ar        1 UNL1     -0.0067
     19 C         -6.016198   2.028434   6.794388 C.ar        1 UNL1     -0.0516
     20 C         -7.222865   2.724437   6.654762 C.ar        1 UNL1     -0.0198
     21 C         -8.078225   2.839545   7.735935 C.ar        1 UNL1     0.1169
     22 C         -7.772283   2.236932   8.949235 C.ar        1 UNL1     -0.0198
     23 C         -6.574234   1.525166   9.083854 C.ar        1 UNL1     -0.0516
     24 O         -9.226749   3.557018   7.573066 O.3        1 UNL1     -0.5068
     25 O         -5.83268   -2.460484   8.227607 O.2        1 UNL1     -0.2917
     26 O         -5.857627   -3.393807   5.698415 O.3        1 UNL1     -0.5058
     27 O         -0.23775   -0.206364   2.539847 O.3        1 UNL1     -0.3648
     28 O         0.255063   -1.951791   -0.579897 O.3        1 UNL1     -0.3841
     29 O         -2.456915   0.371729   -0.268012 O.3        1 UNL1     -0.3863
     30 O         -2.466954   -3.302336   -0.232642 O.3        1 UNL1     -0.3829
     31 H         0.607496   -1.858904   1.810013 H        1 UNL1     0.0937
     32 H         0.0   0.0   0.0 H        1 UNL1     0.0671
     33 H         -1.870193   -1.177834   -1.424883 H        1 UNL1     0.0649
     34 H         -3.854101   -1.814288   0.038412 H        1 UNL1     0.0683
     35 H         -3.223561   -2.933659   2.127354 H        1 UNL1     0.1085
     36 H         -4.863759   -2.94996   3.391353 H        1 UNL1     0.0691
     37 H         -2.796412   0.676288   4.489805 H        1 UNL1     0.0691
     38 H         -3.404232   -1.053744   9.007566 H        1 UNL1     0.0385
     39 H         -4.968773   -0.634985   9.732408 H        1 UNL1     0.0385
     40 H         -3.715087   1.358844   8.825618 H        1 UNL1     0.0789
     41 H         -5.357742   1.960061   5.933335 H        1 UNL1     0.0623
     42 H         -7.479492   3.188257   5.705538 H        1 UNL1     0.0654
     43 H         -8.441929   2.308064   9.798014 H        1 UNL1     0.0654
     44 H         -6.372231   1.058145   10.042984 H        1 UNL1     0.0623
     45 H         -8.988211   4.47005   7.344617 H        1 UNL1     0.2921
     46 H         -5.466259   -3.916705   6.415926 H        1 UNL1     0.2922
     47 H         0.50465   0.34855   2.26277 H        1 UNL1     0.2126
     48 H         1.190728   -1.881528   -0.309106 H        1 UNL1     0.2101
     49 H         -2.016969   0.953138   -0.908485 H        1 UNL1     0.2100
     50 H         -2.701958   -3.310719   -1.18365 H        1 UNL1     0.2102
@<TRIPOS>BOND
     1     1     2    1
     2     1     6    1
     3     2     3    1
     4     3     4    1
     5     3    29    1
     6     3    33    1
     7     4     5    1
     8     5     6    1
     9     5     7    1
    10     5    35    1
    11     7     8    1
    12     8     9   ar
    13     8    13   ar
    14     9    10   ar
    15     9    36    1
    16    10    11   ar
    17    10    26    1
    18    11    12   ar
    19    11    14    1
    20    12    13   ar
    21    12    17    1
    22    13    37    1
    23    14    15    1
    24    14    25    2
    25    15    16    1
    26    15    38    1
    27    15    39    1
    28    16    17    1
    29    16    18    1
    30    16    40    1
    31    18    19   ar
    32    18    23   ar
    33    19    20   ar
    34    19    41    1
    35    20    21   ar
    36    20    42    1
    37    21    22   ar
    38    21    24    1
    39    22    23   ar
    40    22    43    1
    41    23    44    1
    42    24    45    1
    43    26    46    1
    44    27    47    1
    45    28    48    1
    46    29    49    1
    47    30    50    1
    48     1    31    1
    49     1    27    1
    50     2    32    1
    51     2    28    1
    52     4    34    1
    53     4    30    1
