@<TRIPOS>MOLECULE
*****
 50 53 0 0 0
SMALL
GASTEIGER

@<TRIPOS>ATOM
     1 C         -0.557794   -1.409203   1.572837 C.3        1 UNL1     0.1889
     2 C         -0.574158   -0.929845   0.096393 C.3        1 UNL1     0.1342
     3 C         -1.976838   -0.716028   -0.492875 C.3        1 UNL1     0.1174
     4 C         -3.00404   -1.717202   0.041565 C.3        1 UNL1     0.1456
     5 C         -2.932627   -1.876304   1.571255 C.3        1 UNL1     0.2326
     6 O         -1.618375   -2.271287   1.958033 O.3        1 UNL1     -0.3076
     7 O         -3.412252   -0.72552   2.290267 O.3        1 UNL1     -0.4605
     8 C         -4.004633   -0.979061   3.51433 C.ar        1 UNL1     0.1310
     9 C         -4.949422   -1.979836   3.765573 C.ar        1 UNL1     0.0226
     10 C         -5.479817   -2.16909   5.047278 C.ar        1 UNL1     0.1343
     11 C         -5.06012   -1.376792   6.114966 C.ar        1 UNL1     0.1007
     12 C         -4.147757   -0.347514   5.868052 C.ar        1 UNL1     0.1389
     13 C         -3.616577   -0.155714   4.578676 C.ar        1 UNL1     0.0229
     14 C         -5.524625   -1.587659   7.505622 C.2        1 UNL1     0.1740
     15 C         -4.805532   -0.795249   8.557545 C.3        1 UNL1     0.0520
     16 C         -4.55624   0.606578   8.018389 C.3        1 UNL1     0.1322
     17 O         -3.748075   0.559575   6.821839 O.3        1 UNL1     -0.4828
     18 C         -5.825028   1.453598   7.89406 C.ar        1 UNL1     -0.0067
     19 C         -6.07933   2.147878   6.693428 C.ar        1 UNL1     -0.0516
     20 C         -7.205788   2.968911   6.563191 C.ar        1 UNL1     -0.0198
     21 C         -8.079643   3.109467   7.626416 C.ar        1 UNL1     0.1169
     22 C         -7.874076   2.412418   8.80993 C.ar        1 UNL1     -0.0198
     23 C         -6.757596   1.576877   8.93402 C.ar        1 UNL1     -0.0516
     24 O         -9.145398   3.947245   7.475769 O.3        1 UNL1     -0.5068
     25 O         -6.383661   -2.40942   7.814248 O.2        1 UNL1     -0.2917
     26 O         -6.398503   -3.161995   5.225438 O.3        1 UNL1     -0.5058
     27 O         -0.372339   -0.357401   2.506703 O.3        1 UNL1     -0.3648
     28 O         0.083666   -1.922451   -0.712747 O.3        1 UNL1     -0.3841
     29 O         -2.392401   0.641864   -0.332975 O.3        1 UNL1     -0.3863
     30 O         -2.773249   -3.004884   -0.570235 O.3        1 UNL1     -0.3829
     31 H         0.334793   -2.033573   1.689147 H        1 UNL1     0.0937
     32 H         0.0   0.0   0.0 H        1 UNL1     0.0671
     33 H         -1.912481   -0.875571   -1.578289 H        1 UNL1     0.0649
     34 H         -4.014683   -1.4038   -0.242655 H        1 UNL1     0.0683
     35 H         -3.595321   -2.725479   1.780103 H        1 UNL1     0.1085
     36 H         -5.274613   -2.664656   2.990078 H        1 UNL1     0.0691
     37 H         -2.908606   0.653368   4.412374 H        1 UNL1     0.0691
     38 H         -3.862578   -1.309206   8.772519 H        1 UNL1     0.0385
     39 H         -5.406468   -0.785868   9.473278 H        1 UNL1     0.0385
     40 H         -3.928828   1.129144   8.7531 H        1 UNL1     0.0789
     41 H         -5.403706   2.061382   5.847437 H        1 UNL1     0.0623
     42 H         -7.384551   3.508408   5.636369 H        1 UNL1     0.0654
     43 H         -8.560162   2.503469   9.64354 H        1 UNL1     0.0654
     44 H         -6.633794   1.039167   9.869106 H        1 UNL1     0.0623
     45 H         -8.810216   4.841005   7.298107 H        1 UNL1     0.2921
     46 H         -6.087809   -3.770394   5.914446 H        1 UNL1     0.2922
     47 H         0.43906   0.129547   2.305773 H        1 UNL1     0.2126
     48 H         1.002758   -1.983503   -0.388285 H        1 UNL1     0.2101
     49 H         -1.861829   1.218908   -0.905082 H        1 UNL1     0.2100
     50 H         -2.959035   -2.921071   -1.528448 H        1 UNL1     0.2102
@<TRIPOS>BOND
     1     1     2    1
     2     1     6    1
     3     2     3    1
     4     3     4    1
     5     3    29    1
     6     3    33    1
     7     4     5    1
     8     5     6    1
     9     5     7    1
    10     5    35    1
    11     7     8    1
    12     8     9   ar
    13     8    13   ar
    14     9    10   ar
    15     9    36    1
    16    10    11   ar
    17    10    26    1
    18    11    12   ar
    19    11    14    1
    20    12    13   ar
    21    12    17    1
    22    13    37    1
    23    14    15    1
    24    14    25    2
    25    15    16    1
    26    15    38    1
    27    15    39    1
    28    16    17    1
    29    16    18    1
    30    16    40    1
    31    18    19   ar
    32    18    23   ar
    33    19    20   ar
    34    19    41    1
    35    20    21   ar
    36    20    42    1
    37    21    22   ar
    38    21    24    1
    39    22    23   ar
    40    22    43    1
    41    23    44    1
    42    24    45    1
    43    26    46    1
    44    27    47    1
    45    28    48    1
    46    29    49    1
    47    30    50    1
    48     1    31    1
    49     1    27    1
    50     2    32    1
    51     2    28    1
    52     4    34    1
    53     4    30    1
