@<TRIPOS>MOLECULE
*****
 50 53 0 0 0
SMALL
GASTEIGER

@<TRIPOS>ATOM
     1 C         -0.321932   -1.336554   1.697288 C.3        1 UNL1     0.1889
     2 C         -0.460096   -0.976961   0.193445 C.3        1 UNL1     0.1342
     3 C         -1.903473   -0.964121   -0.332827 C.3        1 UNL1     0.1174
     4 C         -2.785075   -2.027688   0.326508 C.3        1 UNL1     0.1456
     5 C         -2.62612   -2.059779   1.857543 C.3        1 UNL1     0.2326
     6 O         -1.259255   -2.277429   2.199856 O.3        1 UNL1     -0.3076
     7 O         -3.1996   -0.916563   2.517467 O.3        1 UNL1     -0.4605
     8 C         -3.703185   -1.138607   3.786572 C.ar        1 UNL1     0.1310
     9 C         -4.51631   -2.214462   4.158949 C.ar        1 UNL1     0.0226
     10 C         -4.96302   -2.361586   5.477549 C.ar        1 UNL1     0.1343
     11 C         -4.587475   -1.448465   6.461935 C.ar        1 UNL1     0.1007
     12 C         -3.809563   -0.347578   6.093583 C.ar        1 UNL1     0.1389
     13 C         -3.36271   -0.198434   4.767118 C.ar        1 UNL1     0.0229
     14 C         -4.961385   -1.60143   7.887048 C.2        1 UNL1     0.1740
     15 C         -4.289407   -0.656655   8.839622 C.3        1 UNL1     0.0520
     16 C         -4.225052   0.718447   8.189306 C.3        1 UNL1     0.1322
     17 O         -3.472049   0.668364   6.957419 O.3        1 UNL1     -0.4828
     18 C         -5.585831   1.409504   8.073352 C.ar        1 UNL1     -0.0067
     19 C         -5.971393   1.977502   6.841713 C.ar        1 UNL1     -0.0516
     20 C         -7.188232   2.657923   6.71407 C.ar        1 UNL1     -0.0198
     21 C         -8.023083   2.78329   7.810032 C.ar        1 UNL1     0.1169
     22 C         -7.686359   2.205903   9.027439 C.ar        1 UNL1     -0.0198
     23 C         -6.478062   1.50954   9.15053 C.ar        1 UNL1     -0.0516
     24 O         -9.182495   3.48538   7.657602 O.3        1 UNL1     -0.5068
     25 O         -5.707031   -2.486088   8.299209 O.2        1 UNL1     -0.2917
     26 O         -5.754451   -3.432401   5.77517 O.3        1 UNL1     -0.5058
     27 O         -0.214262   -0.202017   2.542285 O.3        1 UNL1     -0.3648
     28 O         0.2682   -1.950836   -0.577177 O.3        1 UNL1     -0.3841
     29 O         -2.462439   0.348318   -0.248017 O.3        1 UNL1     -0.3863
     30 O         -2.438145   -3.325581   -0.2034 O.3        1 UNL1     -0.3829
     31 H         0.64003   -1.848548   1.809408 H        1 UNL1     0.0937
     32 H         0.0   0.0   0.0 H        1 UNL1     0.0671
     33 H         -1.87123   -1.198729   -1.405971 H        1 UNL1     0.0649
     34 H         -3.836666   -1.849723   0.075738 H        1 UNL1     0.0683
     35 H         -3.178077   -2.95784   2.162024 H        1 UNL1     0.1085
     36 H         -4.796913   -2.988284   3.452846 H        1 UNL1     0.0691
     37 H         -2.759092   0.668066   4.505742 H        1 UNL1     0.0691
     38 H         -3.285577   -1.046323   9.039648 H        1 UNL1     0.0385
     39 H         -4.845252   -0.642757   9.78335 H        1 UNL1     0.0385
     40 H         -3.627989   1.361403   8.850096 H        1 UNL1     0.0789
     41 H         -5.329522   1.90071   5.968927 H        1 UNL1     0.0623
     42 H         -7.468852   3.101824   5.762116 H        1 UNL1     0.0654
     43 H         -8.339692   2.285113   9.888132 H        1 UNL1     0.0654
     44 H         -6.251818   1.062031   10.113543 H        1 UNL1     0.0623
     45 H         -8.958941   4.394445   7.400033 H        1 UNL1     0.2921
     46 H         -5.346556   -3.947696   6.488965 H        1 UNL1     0.2922
     47 H         0.52658   0.354071   2.263397 H        1 UNL1     0.2126
     48 H         1.202355   -1.884921   -0.300152 H        1 UNL1     0.2101
     49 H         -2.027478   0.934238   -0.887783 H        1 UNL1     0.2100
     50 H         -2.675915   -3.336641   -1.153693 H        1 UNL1     0.2102
@<TRIPOS>BOND
     1     1     2    1
     2     1     6    1
     3     2     3    1
     4     3     4    1
     5     3    29    1
     6     3    33    1
     7     4     5    1
     8     5     6    1
     9     5     7    1
    10     5    35    1
    11     7     8    1
    12     8     9   ar
    13     8    13   ar
    14     9    10   ar
    15     9    36    1
    16    10    11   ar
    17    10    26    1
    18    11    12   ar
    19    11    14    1
    20    12    13   ar
    21    12    17    1
    22    13    37    1
    23    14    15    1
    24    14    25    2
    25    15    16    1
    26    15    38    1
    27    15    39    1
    28    16    17    1
    29    16    18    1
    30    16    40    1
    31    18    19   ar
    32    18    23   ar
    33    19    20   ar
    34    19    41    1
    35    20    21   ar
    36    20    42    1
    37    21    22   ar
    38    21    24    1
    39    22    23   ar
    40    22    43    1
    41    23    44    1
    42    24    45    1
    43    26    46    1
    44    27    47    1
    45    28    48    1
    46    29    49    1
    47    30    50    1
    48     1    31    1
    49     1    27    1
    50     2    32    1
    51     2    28    1
    52     4    34    1
    53     4    30    1
