@<TRIPOS>MOLECULE
*****
 50 53 0 0 0
SMALL
GASTEIGER

@<TRIPOS>ATOM
     1 C         -0.330227   -1.327153   1.703062 C.3        1 UNL1     0.1889
     2 C         -0.461599   -0.975599   0.196711 C.3        1 UNL1     0.1342
     3 C         -1.902663   -0.964652   -0.335904 C.3        1 UNL1     0.1174
     4 C         -2.787851   -2.02406   0.325317 C.3        1 UNL1     0.1456
     5 C         -2.635583   -2.047984   1.857181 C.3        1 UNL1     0.2326
     6 O         -1.27037   -2.264682   2.206615 O.3        1 UNL1     -0.3076
     7 O         -3.211151   -0.900843   2.508418 O.3        1 UNL1     -0.4605
     8 C         -3.719982   -1.115589   3.776686 C.ar        1 UNL1     0.1310
     9 C         -4.535152   -2.188965   4.151735 C.ar        1 UNL1     0.0226
     10 C         -4.98727   -2.328546   5.469312 C.ar        1 UNL1     0.1343
     11 C         -4.61525   -1.410152   6.450125 C.ar        1 UNL1     0.1007
     12 C         -3.835295   -0.311705   6.078819 C.ar        1 UNL1     0.1389
     13 C         -3.383001   -0.170148   4.753367 C.ar        1 UNL1     0.0229
     14 C         -4.995002   -1.555017   7.87454 C.2        1 UNL1     0.1740
     15 C         -4.326407   -0.60529   8.824566 C.3        1 UNL1     0.0520
     16 C         -4.258724   0.766147   8.166891 C.3        1 UNL1     0.1322
     17 O         -3.500766   0.708857   6.93836 O.3        1 UNL1     -0.4828
     18 C         -5.618672   1.457208   8.04159 C.ar        1 UNL1     -0.0067
     19 C         -5.998957   2.018541   6.805264 C.ar        1 UNL1     -0.0516
     20 C         -7.214925   2.698832   6.668917 C.ar        1 UNL1     -0.0198
     21 C         -8.054142   2.830689   7.760776 C.ar        1 UNL1     0.1169
     22 C         -7.722641   2.259911   8.982724 C.ar        1 UNL1     -0.0198
     23 C         -6.515204   1.563657   9.114573 C.ar        1 UNL1     -0.0516
     24 O         -9.212571   3.532483   7.599754 O.3        1 UNL1     -0.5068
     25 O         -5.742758   -2.437011   8.288583 O.2        1 UNL1     -0.2917
     26 O         -5.780442   -3.397307   5.769667 O.3        1 UNL1     -0.5058
     27 O         -0.225463   -0.188139   2.542381 O.3        1 UNL1     -0.3648
     28 O         0.269379   -1.954102   -0.565461 O.3        1 UNL1     -0.3841
     29 O         -2.461098   0.348594   -0.260618 O.3        1 UNL1     -0.3863
     30 O         -2.439503   -3.325025   -0.196059 O.3        1 UNL1     -0.3829
     31 H         0.630888   -1.839167   1.822134 H        1 UNL1     0.0937
     32 H         0.0   0.0   0.0 H        1 UNL1     0.0671
     33 H         -1.86591   -1.205075   -1.407616 H        1 UNL1     0.0649
     34 H         -3.838219   -1.84676   0.069012 H        1 UNL1     0.0683
     35 H         -3.189472   -2.944024   2.164099 H        1 UNL1     0.1085
     36 H         -4.813286   -2.966562   3.448809 H        1 UNL1     0.0691
     37 H         -2.777892   0.694593   4.48963 H        1 UNL1     0.0691
     38 H         -3.323593   -0.994327   9.030817 H        1 UNL1     0.0385
     39 H         -4.88606   -0.585881   9.765943 H        1 UNL1     0.0385
     40 H         -3.664014   1.412474   8.826513 H        1 UNL1     0.0789
     41 H         -5.353598   1.936591   5.935525 H        1 UNL1     0.0623
     42 H         -7.491465   3.137574   5.713384 H        1 UNL1     0.0654
     43 H         -8.379412   2.344217   9.84031 H        1 UNL1     0.0654
     44 H         -6.293087   1.121396   10.080965 H        1 UNL1     0.0623
     45 H         -8.987537   4.439804   7.337368 H        1 UNL1     0.2921
     46 H         -5.375183   -3.90941   6.487251 H        1 UNL1     0.2922
     47 H         0.517071   0.365859   2.263831 H        1 UNL1     0.2126
     48 H         1.202245   -1.887794   -0.284218 H        1 UNL1     0.2101
     49 H         -2.022898   0.930785   -0.901577 H        1 UNL1     0.2100
     50 H         -2.673143   -3.341062   -1.147305 H        1 UNL1     0.2102
@<TRIPOS>BOND
     1     1     2    1
     2     1     6    1
     3     2     3    1
     4     3     4    1
     5     3    29    1
     6     3    33    1
     7     4     5    1
     8     5     6    1
     9     5     7    1
    10     5    35    1
    11     7     8    1
    12     8     9   ar
    13     8    13   ar
    14     9    10   ar
    15     9    36    1
    16    10    11   ar
    17    10    26    1
    18    11    12   ar
    19    11    14    1
    20    12    13   ar
    21    12    17    1
    22    13    37    1
    23    14    15    1
    24    14    25    2
    25    15    16    1
    26    15    38    1
    27    15    39    1
    28    16    17    1
    29    16    18    1
    30    16    40    1
    31    18    19   ar
    32    18    23   ar
    33    19    20   ar
    34    19    41    1
    35    20    21   ar
    36    20    42    1
    37    21    22   ar
    38    21    24    1
    39    22    23   ar
    40    22    43    1
    41    23    44    1
    42    24    45    1
    43    26    46    1
    44    27    47    1
    45    28    48    1
    46    29    49    1
    47    30    50    1
    48     1    31    1
    49     1    27    1
    50     2    32    1
    51     2    28    1
    52     4    34    1
    53     4    30    1
