@<TRIPOS>MOLECULE
*****
 50 53 0 0 0
SMALL
GASTEIGER

@<TRIPOS>ATOM
     1 C         -0.494499   -1.228174   1.7372 C.3        1 UNL1     0.1889
     2 C         -0.501854   -0.952807   0.209437 C.3        1 UNL1     0.1342
     3 C         -1.897668   -0.935657   -0.432338 C.3        1 UNL1     0.1174
     4 C         -2.85917   -1.937854   0.211271 C.3        1 UNL1     0.1456
     5 C         -2.823889   -1.885291   1.749568 C.3        1 UNL1     0.2326
     6 O         -1.495498   -2.115632   2.21345 O.3        1 UNL1     -0.3076
     7 O         -3.415231   -0.692407   2.29607 O.3        1 UNL1     -0.4605
     8 C         -4.034518   -0.831121   3.525204 C.ar        1 UNL1     0.1310
     9 C         -4.911586   -1.862105   3.878934 C.ar        1 UNL1     0.0226
     10 C         -5.476123   -1.924937   5.158485 C.ar        1 UNL1     0.1343
     11 C         -5.158337   -0.970549   6.123885 C.ar        1 UNL1     0.1007
     12 C         -4.315865   0.08662   5.76974 C.ar        1 UNL1     0.1389
     13 C         -3.750434   0.151037   4.482274 C.ar        1 UNL1     0.0229
     14 C         -5.659867   -1.035458   7.516152 C.2        1 UNL1     0.1740
     15 C         -5.043132   -0.059461   8.474597 C.3        1 UNL1     0.0520
     16 C         -4.877612   1.275988   7.762462 C.3        1 UNL1     0.1322
     17 O         -4.022088   1.138153   6.606543 O.3        1 UNL1     -0.4828
     18 C         -6.19989   1.997377   7.490614 C.ar        1 UNL1     -0.0067
     19 C         -6.45041   2.523742   6.206716 C.ar        1 UNL1     -0.0516
     20 C         -7.628676   3.230217   5.937371 C.ar        1 UNL1     -0.0198
     21 C         -8.55883   3.423015   6.94309 C.ar        1 UNL1     0.1169
     22 C         -8.355852   2.887972   8.208541 C.ar        1 UNL1     -0.0198
     23 C         -7.18614   2.165612   8.473163 C.ar        1 UNL1     -0.0516
     24 O         -9.67696   4.148585   6.653721 O.3        1 UNL1     -0.5068
     25 O         -6.466998   -1.875322   7.905579 O.2        1 UNL1     -0.2917
     26 O         -6.32491   -2.955552   5.43952 O.3        1 UNL1     -0.5058
     27 O         -0.422161   -0.049652   2.523737 O.3        1 UNL1     -0.3648
     28 O         0.257429   -1.986799   -0.444057 O.3        1 UNL1     -0.3841
     29 O         -2.423805   0.392557   -0.466385 O.3        1 UNL1     -0.3863
     30 O         -2.508368   -3.272153   -0.215664 O.3        1 UNL1     -0.3829
     31 H         0.44039   -1.755834   1.955461 H        1 UNL1     0.0937
     32 H         0.0   0.0   0.0 H        1 UNL1     0.0671
     33 H         -1.786617   -1.232554   -1.484593 H        1 UNL1     0.0649
     34 H         -3.881865   -1.749419   -0.133674 H        1 UNL1     0.0683
     35 H         -3.423875   -2.75073   2.057644 H        1 UNL1     0.1085
     36 H         -5.154576   -2.664993   3.191587 H        1 UNL1     0.0691
     37 H         -3.098454   0.984917   4.231159 H        1 UNL1     0.0691
     38 H         -4.073778   -0.465515   8.782819 H        1 UNL1     0.0385
     39 H         -5.678402   0.021121   9.363257 H        1 UNL1     0.0385
     40 H         -4.319841   1.936977   8.439592 H        1 UNL1     0.0789
     41 H         -5.731834   2.393831   5.402713 H        1 UNL1     0.0623
     42 H         -7.804858   3.641474   4.946493 H        1 UNL1     0.0654
     43 H         -9.084623   3.0201   8.99933 H        1 UNL1     0.0654
     44 H         -7.065219   1.752649   9.470001 H        1 UNL1     0.0623
     45 H         -9.404572   5.048962   6.413217 H        1 UNL1     0.2921
     46 H         -5.998534   -3.441667   6.213201 H        1 UNL1     0.2922
     47 H         0.342603   0.481547   2.261396 H        1 UNL1     0.2126
     48 H         1.17745   -1.90031   -0.128123 H        1 UNL1     0.2101
     49 H         -1.928017   0.927604   -1.106474 H        1 UNL1     0.2100
     50 H         -2.675115   -3.334083   -1.179029 H        1 UNL1     0.2102
@<TRIPOS>BOND
     1     1     2    1
     2     1     6    1
     3     2     3    1
     4     3     4    1
     5     3    29    1
     6     3    33    1
     7     4     5    1
     8     5     6    1
     9     5     7    1
    10     5    35    1
    11     7     8    1
    12     8     9   ar
    13     8    13   ar
    14     9    10   ar
    15     9    36    1
    16    10    11   ar
    17    10    26    1
    18    11    12   ar
    19    11    14    1
    20    12    13   ar
    21    12    17    1
    22    13    37    1
    23    14    15    1
    24    14    25    2
    25    15    16    1
    26    15    38    1
    27    15    39    1
    28    16    17    1
    29    16    18    1
    30    16    40    1
    31    18    19   ar
    32    18    23   ar
    33    19    20   ar
    34    19    41    1
    35    20    21   ar
    36    20    42    1
    37    21    22   ar
    38    21    24    1
    39    22    23   ar
    40    22    43    1
    41    23    44    1
    42    24    45    1
    43    26    46    1
    44    27    47    1
    45    28    48    1
    46    29    49    1
    47    30    50    1
    48     1    31    1
    49     1    27    1
    50     2    32    1
    51     2    28    1
    52     4    34    1
    53     4    30    1
