@<TRIPOS>MOLECULE
*****
 50 53 0 0 0
SMALL
GASTEIGER

@<TRIPOS>ATOM
     1 C         0.187405   -1.81948   1.193807 C.3        1 UNL1     0.1889
     2 C         -0.366309   -1.0338   -0.025228 C.3        1 UNL1     0.1342
     3 C         -1.898563   -1.019916   -0.136898 C.3        1 UNL1     0.1174
     4 C         -2.540287   -2.325011   0.340634 C.3        1 UNL1     0.1456
     5 C         -1.966824   -2.807102   1.685658 C.3        1 UNL1     0.2326
     6 O         -0.553765   -2.966685   1.582371 O.3        1 UNL1     -0.3076
     7 O         -2.364028   -1.991987   2.803306 O.3        1 UNL1     -0.4605
     8 C         -2.505878   -2.64872   4.012483 C.ar        1 UNL1     0.1310
     9 C         -3.1609   -3.870801   4.198936 C.ar        1 UNL1     0.0226
     10 C         -3.236845   -4.465619   5.463976 C.ar        1 UNL1     0.1343
     11 C         -2.638398   -3.863829   6.570119 C.ar        1 UNL1     0.1007
     12 C         -2.016925   -2.623273   6.404056 C.ar        1 UNL1     0.1389
     13 C         -1.942988   -2.02411   5.132455 C.ar        1 UNL1     0.0229
     14 C         -2.615718   -4.488807   7.912893 C.2        1 UNL1     0.1740
     15 C         -1.740942   -3.814166   8.928361 C.3        1 UNL1     0.0520
     16 C         -1.88956   -2.307532   8.767356 C.3        1 UNL1     0.1322
     17 O         -1.489993   -1.891482   7.442849 O.3        1 UNL1     -0.4828
     18 C         -3.250665   -1.771074   9.217168 C.ar        1 UNL1     -0.0067
     19 C         -3.633823   -0.463393   8.854711 C.ar        1 UNL1     -0.0516
     20 C         -4.850951   0.074944   9.289169 C.ar        1 UNL1     -0.0198
     21 C         -5.688489   -0.679902   10.090771 C.ar        1 UNL1     0.1169
     22 C         -5.354126   -1.982719   10.436761 C.ar        1 UNL1     -0.0198
     23 C         -4.145514   -2.527864   9.987172 C.ar        1 UNL1     -0.0516
     24 O         -6.84815   -0.108717   10.525894 O.3        1 UNL1     -0.5068
     25 O         -3.200393   -5.534933   8.181706 O.2        1 UNL1     -0.2917
     26 O         -3.89097   -5.657502   5.578514 O.3        1 UNL1     -0.5058
     27 O         0.495998   -0.993995   2.305622 O.3        1 UNL1     -0.3648
     28 O         0.145391   -1.637768   -1.227763 O.3        1 UNL1     -0.3841
     29 O         -2.44352   0.133086   0.507881 O.3        1 UNL1     -0.3863
     30 O         -2.321589   -3.351262   -0.651671 O.3        1 UNL1     -0.3829
     31 H         1.154988   -2.231542   0.887102 H        1 UNL1     0.0937
     32 H         0.0   0.0   0.0 H        1 UNL1     0.0671
     33 H         -2.156368   -0.909189   -1.199441 H        1 UNL1     0.0649
     34 H         -3.624212   -2.196152   0.434988 H        1 UNL1     0.0683
     35 H         -2.392848   -3.810502   1.810438 H        1 UNL1     0.1085
     36 H         -3.597718   -4.416006   3.369442 H        1 UNL1     0.0691
     37 H         -1.4546   -1.057436   5.029937 H        1 UNL1     0.0691
     38 H         -0.709742   -4.131649   8.74033 H        1 UNL1     0.0385
     39 H         -2.026117   -4.153665   9.929957 H        1 UNL1     0.0385
     40 H         -1.156236   -1.836639   9.435949 H        1 UNL1     0.0789
     41 H         -2.989833   0.15265   8.23389 H        1 UNL1     0.0623
     42 H         -5.129719   1.088806   9.01279 H        1 UNL1     0.0654
     43 H         -6.009551   -2.587953   11.051594 H        1 UNL1     0.0654
     44 H         -3.921147   -3.552433   10.26782 H        1 UNL1     0.0623
     45 H         -6.624071   0.629392   11.115556 H        1 UNL1     0.2921
     46 H         -3.301603   -6.312217   5.985216 H        1 UNL1     0.2922
     47 H         1.102541   -0.288466   2.040678 H        1 UNL1     0.2126
     48 H         1.091784   -1.402133   -1.27825 H        1 UNL1     0.2101
     49 H         -2.378757   0.901902   -0.08078 H        1 UNL1     0.2100
     50 H         -2.833303   -3.11099   -1.451753 H        1 UNL1     0.2102
@<TRIPOS>BOND
     1     1     2    1
     2     1     6    1
     3     2     3    1
     4     3     4    1
     5     3    29    1
     6     3    33    1
     7     4     5    1
     8     5     6    1
     9     5     7    1
    10     5    35    1
    11     7     8    1
    12     8     9   ar
    13     8    13   ar
    14     9    10   ar
    15     9    36    1
    16    10    11   ar
    17    10    26    1
    18    11    12   ar
    19    11    14    1
    20    12    13   ar
    21    12    17    1
    22    13    37    1
    23    14    15    1
    24    14    25    2
    25    15    16    1
    26    15    38    1
    27    15    39    1
    28    16    17    1
    29    16    18    1
    30    16    40    1
    31    18    19   ar
    32    18    23   ar
    33    19    20   ar
    34    19    41    1
    35    20    21   ar
    36    20    42    1
    37    21    22   ar
    38    21    24    1
    39    22    23   ar
    40    22    43    1
    41    23    44    1
    42    24    45    1
    43    26    46    1
    44    27    47    1
    45    28    48    1
    46    29    49    1
    47    30    50    1
    48     1    31    1
    49     1    27    1
    50     2    32    1
    51     2    28    1
    52     4    34    1
    53     4    30    1
