@<TRIPOS>MOLECULE
*****
 50 53 0 0 0
SMALL
GASTEIGER

@<TRIPOS>ATOM
     1 C         -0.361483   -1.341649   1.685263 C.3        1 UNL1     0.1889
     2 C         -0.477964   -0.970486   0.182396 C.3        1 UNL1     0.1342
     3 C         -1.915334   -0.930751   -0.358766 C.3        1 UNL1     0.1174
     4 C         -2.82103   -1.983832   0.284547 C.3        1 UNL1     0.1456
     5 C         -2.678708   -2.028053   1.816916 C.3        1 UNL1     0.2326
     6 O         -1.319244   -2.27017   2.172026 O.3        1 UNL1     -0.3076
     7 O         -3.240379   -0.879737   2.47814 O.3        1 UNL1     -0.4605
     8 C         -3.760818   -1.101407   3.740492 C.ar        1 UNL1     0.1310
     9 C         -4.595236   -2.166109   4.097502 C.ar        1 UNL1     0.0226
     10 C         -5.05811   -2.314111   5.410417 C.ar        1 UNL1     0.1343
     11 C         -4.678092   -1.413405   6.404477 C.ar        1 UNL1     0.1007
     12 C         -3.878513   -0.323123   6.051285 C.ar        1 UNL1     0.1389
     13 C         -3.415381   -0.173056   4.730521 C.ar        1 UNL1     0.0229
     14 C         -5.069392   -1.569101   7.824617 C.2        1 UNL1     0.1740
     15 C         -4.392148   -0.641399   8.790152 C.3        1 UNL1     0.0520
     16 C         -4.298561   0.736489   8.149351 C.3        1 UNL1     0.1322
     17 O         -3.533577   0.681761   6.925066 O.3        1 UNL1     -0.4828
     18 C         -5.646603   1.450431   8.023674 C.ar        1 UNL1     -0.0067
     19 C         -6.00909   2.033938   6.792278 C.ar        1 UNL1     -0.0516
     20 C         -7.213261   2.734995   6.656428 C.ar        1 UNL1     -0.0198
     21 C         -8.058218   2.865605   7.744001 C.ar        1 UNL1     0.1169
     22 C         -7.744551   2.273611   8.960552 C.ar        1 UNL1     -0.0198
     23 C         -6.549127   1.556788   9.091632 C.ar        1 UNL1     -0.0516
     24 O         -9.204344   3.587582   7.584172 O.3        1 UNL1     -0.5068
     25 O         -5.833646   -2.443988   8.223333 O.2        1 UNL1     -0.2917
     26 O         -5.869971   -3.373663   5.692935 O.3        1 UNL1     -0.5058
     27 O         -0.244217   -0.21431   2.538575 O.3        1 UNL1     -0.3648
     28 O         0.242415   -1.951332   -0.586825 O.3        1 UNL1     -0.3841
     29 O         -2.453694   0.390106   -0.27138 O.3        1 UNL1     -0.3863
     30 O         -2.489754   -3.283904   -0.250017 O.3        1 UNL1     -0.3829
     31 H         0.590776   -1.870005   1.804104 H        1 UNL1     0.0937
     32 H         0.0   0.0   0.0 H        1 UNL1     0.0671
     33 H         -1.875649   -1.159168   -1.432996 H        1 UNL1     0.0649
     34 H         -3.866888   -1.787124   0.023998 H        1 UNL1     0.0683
     35 H         -3.248397   -2.91884   2.109888 H        1 UNL1     0.1085
     36 H         -4.880983   -2.930824   3.383583 H        1 UNL1     0.0691
     37 H         -2.795009   0.68506   4.480985 H        1 UNL1     0.0691
     38 H         -3.396958   -1.04868   8.99811 H        1 UNL1     0.0385
     39 H         -4.957573   -0.624283   9.728118 H        1 UNL1     0.0385
     40 H         -3.698071   1.36546   8.820415 H        1 UNL1     0.0789
     41 H         -5.358795   1.953341   5.926097 H        1 UNL1     0.0623
     42 H         -7.475971   3.1906   5.704893 H        1 UNL1     0.0654
     43 H         -8.406132   2.356904   9.814533 H        1 UNL1     0.0654
     44 H         -6.340965   1.098376   10.053595 H        1 UNL1     0.0623
     45 H         -8.963246   4.494819   7.33616 H        1 UNL1     0.2921
     46 H         -5.478049   -3.899999   6.407623 H        1 UNL1     0.2922
     47 H         0.508479   0.331306   2.27097 H        1 UNL1     0.2126
     48 H         1.174559   -1.902439   -0.299684 H        1 UNL1     0.2101
     49 H         -2.002545   0.972802   -0.902826 H        1 UNL1     0.2100
     50 H         -2.717679   -3.285154   -1.202782 H        1 UNL1     0.2102
@<TRIPOS>BOND
     1     1     2    1
     2     1     6    1
     3     2     3    1
     4     3     4    1
     5     3    29    1
     6     3    33    1
     7     4     5    1
     8     5     6    1
     9     5     7    1
    10     5    35    1
    11     7     8    1
    12     8     9   ar
    13     8    13   ar
    14     9    10   ar
    15     9    36    1
    16    10    11   ar
    17    10    26    1
    18    11    12   ar
    19    11    14    1
    20    12    13   ar
    21    12    17    1
    22    13    37    1
    23    14    15    1
    24    14    25    2
    25    15    16    1
    26    15    38    1
    27    15    39    1
    28    16    17    1
    29    16    18    1
    30    16    40    1
    31    18    19   ar
    32    18    23   ar
    33    19    20   ar
    34    19    41    1
    35    20    21   ar
    36    20    42    1
    37    21    22   ar
    38    21    24    1
    39    22    23   ar
    40    22    43    1
    41    23    44    1
    42    24    45    1
    43    26    46    1
    44    27    47    1
    45    28    48    1
    46    29    49    1
    47    30    50    1
    48     1    31    1
    49     1    27    1
    50     2    32    1
    51     2    28    1
    52     4    34    1
    53     4    30    1
