@<TRIPOS>MOLECULE
*****
 50 53 0 0 0
SMALL
GASTEIGER

@<TRIPOS>ATOM
     1 C         -0.345163   -1.33614   1.693044 C.3        1 UNL1     0.1889
     2 C         -0.468872   -0.973726   0.18862 C.3        1 UNL1     0.1342
     3 C         -1.907954   -0.949472   -0.348896 C.3        1 UNL1     0.1174
     4 C         -2.802598   -2.007209   0.302198 C.3        1 UNL1     0.1456
     5 C         -2.655866   -2.042317   1.834386 C.3        1 UNL1     0.2326
     6 O         -1.293383   -2.270585   2.187094 O.3        1 UNL1     -0.3076
     7 O         -3.225943   -0.895638   2.491243 O.3        1 UNL1     -0.4605
     8 C         -3.747876   -1.117048   3.753024 C.ar        1 UNL1     0.1310
     9 C         -3.774686   -2.349804   4.414005 C.ar        1 UNL1     0.0226
     10 C         -4.311247   -2.469135   5.701547 C.ar        1 UNL1     0.1343
     11 C         -4.812888   -1.352847   6.369453 C.ar        1 UNL1     0.1007
     12 C         -4.828993   -0.124327   5.703674 C.ar        1 UNL1     0.1389
     13 C         -4.291837   -0.005118   4.408034 C.ar        1 UNL1     0.0229
     14 C         -5.314608   -1.405802   7.762158 C.2        1 UNL1     0.1740
     15 C         -5.605791   -0.078364   8.398295 C.3        1 UNL1     0.0520
     16 C         -6.266566   0.818586   7.360598 C.3        1 UNL1     0.1322
     17 O         -5.396369   1.015516   6.224356 O.3        1 UNL1     -0.4828
     18 C         -7.693569   0.397529   7.001297 C.ar        1 UNL1     -0.0067
     19 C         -8.068704   0.30883   5.644971 C.ar        1 UNL1     -0.0516
     20 C         -9.378517   -0.02723   5.282456 C.ar        1 UNL1     -0.0198
     21 C         -10.322201   -0.269179   6.264671 C.ar        1 UNL1     0.1169
     22 C         -9.974747   -0.222358   7.608518 C.ar        1 UNL1     -0.0198
     23 C         -8.660402   0.095611   7.971077 C.ar        1 UNL1     -0.0516
     24 O         -11.59704   -0.556573   5.874043 O.3        1 UNL1     -0.5068
     25 O         -5.418054   -2.447593   8.404384 O.2        1 UNL1     -0.2917
     26 O         -4.308324   -3.699899   6.290441 O.3        1 UNL1     -0.5058
     27 O         -0.235642   -0.20345   2.540278 O.3        1 UNL1     -0.3648
     28 O         0.25814   -1.952094   -0.57751 O.3        1 UNL1     -0.3841
     29 O         -2.457756   0.367004   -0.26681 O.3        1 UNL1     -0.3863
     30 O         -2.461229   -3.307024   -0.226611 O.3        1 UNL1     -0.3829
     31 H         0.612045   -1.855441   1.812034 H        1 UNL1     0.0937
     32 H         0.0   0.0   0.0 H        1 UNL1     0.0671
     33 H         -1.86907   -1.183031   -1.422049 H        1 UNL1     0.0649
     34 H         -3.850838   -1.821092   0.043444 H        1 UNL1     0.0683
     35 H         -3.216874   -2.936593   2.133419 H        1 UNL1     0.1085
     36 H         -3.349581   -3.243733   3.970951 H        1 UNL1     0.0691
     37 H         -4.317354   0.962216   3.910936 H        1 UNL1     0.0691
     38 H         -4.65295   0.343382   8.735565 H        1 UNL1     0.0385
     39 H         -6.241437   -0.23307   9.276815 H        1 UNL1     0.0385
     40 H         -6.362334   1.816593   7.809296 H        1 UNL1     0.0789
     41 H         -7.348808   0.50303   4.855232 H        1 UNL1     0.0623
     42 H         -9.658469   -0.08077   4.233279 H        1 UNL1     0.0654
     43 H         -10.702115   -0.424785   8.385608 H        1 UNL1     0.0654
     44 H         -8.421413   0.112843   9.030054 H        1 UNL1     0.0623
     45 H         -11.94338   0.201401   5.375805 H        1 UNL1     0.2921
     46 H         -3.840833   -3.651288   7.139264 H        1 UNL1     0.2922
     47 H         0.508966   0.349567   2.26534 H        1 UNL1     0.2126
     48 H         1.193863   -1.879811   -0.307455 H        1 UNL1     0.2101
     49 H         -2.019285   0.948353   -0.908348 H        1 UNL1     0.2100
     50 H         -2.69687   -3.317074   -1.177445 H        1 UNL1     0.2102
@<TRIPOS>BOND
     1     1     2    1
     2     1     6    1
     3     2     3    1
     4     3     4    1
     5     3    29    1
     6     3    33    1
     7     4     5    1
     8     5     6    1
     9     5     7    1
    10     5    35    1
    11     7     8    1
    12     8     9   ar
    13     8    13   ar
    14     9    10   ar
    15     9    36    1
    16    10    11   ar
    17    10    26    1
    18    11    12   ar
    19    11    14    1
    20    12    13   ar
    21    12    17    1
    22    13    37    1
    23    14    15    1
    24    14    25    2
    25    15    16    1
    26    15    38    1
    27    15    39    1
    28    16    17    1
    29    16    18    1
    30    16    40    1
    31    18    19   ar
    32    18    23   ar
    33    19    20   ar
    34    19    41    1
    35    20    21   ar
    36    20    42    1
    37    21    22   ar
    38    21    24    1
    39    22    23   ar
    40    22    43    1
    41    23    44    1
    42    24    45    1
    43    26    46    1
    44    27    47    1
    45    28    48    1
    46    29    49    1
    47    30    50    1
    48     1    31    1
    49     1    27    1
    50     2    32    1
    51     2    28    1
    52     4    34    1
    53     4    30    1
