@<TRIPOS>MOLECULE
*****
 50 53 0 0 0
SMALL
GASTEIGER

@<TRIPOS>ATOM
     1 C         -0.393569   -0.31741   2.12489 C.3        1 UNL1     0.1889
     2 C         0.513333   -0.428303   0.869832 C.3        1 UNL1     0.1342
     3 C         0.967178   -1.85643   0.530799 C.3        1 UNL1     0.1174
     4 C         1.204171   -2.71512   1.775629 C.3        1 UNL1     0.1456
     5 C         0.061658   -2.596435   2.800783 C.3        1 UNL1     0.2326
     6 O         -0.115896   -1.232121   3.174936 O.3        1 UNL1     -0.3076
     7 O         -1.158547   -3.229843   2.37509 O.3        1 UNL1     -0.4605
     8 C         -1.106465   -3.892148   1.16176 C.ar        1 UNL1     0.1310
     9 C         0.032108   -4.026083   0.35988 C.ar        1 UNL1     0.0226
     10 C         -0.012367   -4.732482   -0.84798 C.ar        1 UNL1     0.1343
     11 C         -1.191918   -5.342944   -1.272051 C.ar        1 UNL1     0.1007
     12 C         -2.345523   -5.181436   -0.50011 C.ar        1 UNL1     0.1389
     13 C         -2.301184   -4.468871   0.713033 C.ar        1 UNL1     0.0229
     14 C         -1.274519   -6.17153   -2.497113 C.2        1 UNL1     0.1740
     15 C         -2.555067   -6.931558   -2.681778 C.3        1 UNL1     0.0520
     16 C         -3.712056   -6.035353   -2.262073 C.3        1 UNL1     0.1322
     17 O         -3.583821   -5.647645   -0.876321 O.3        1 UNL1     -0.4828
     18 C         -3.972205   -4.873821   -3.224305 C.ar        1 UNL1     -0.0067
     19 C         -4.340253   -5.148137   -4.557536 C.ar        1 UNL1     -0.0516
     20 C         -4.539285   -4.110307   -5.475827 C.ar        1 UNL1     -0.0198
     21 C         -4.366587   -2.797221   -5.076066 C.ar        1 UNL1     0.1169
     22 C         -4.037124   -2.493896   -3.761423 C.ar        1 UNL1     -0.0198
     23 C         -3.856067   -3.530737   -2.838257 C.ar        1 UNL1     -0.0516
     24 O         -4.532066   -1.814865   -6.007728 O.3        1 UNL1     -0.5068
     25 O         -0.342032   -6.308937   -3.28456 O.2        1 UNL1     -0.2917
     26 O         1.132783   -4.82527   -1.58392 O.3        1 UNL1     -0.5058
     27 O         -1.778441   -0.275061   1.819731 O.3        1 UNL1     -0.3648
     28 O         1.699475   0.356412   1.093426 O.3        1 UNL1     -0.3841
     29 O         0.070048   -2.466152   -0.399539 O.3        1 UNL1     -0.3863
     30 O         2.437479   -2.305746   2.405751 O.3        1 UNL1     -0.3829
     31 H         -0.186637   0.659645   2.575026 H        1 UNL1     0.0937
     32 H         0.0   0.0   -0.0 H        1 UNL1     0.0671
     33 H         1.929661   -1.786502   0.005006 H        1 UNL1     0.0649
     34 H         1.324388   -3.765482   1.488071 H        1 UNL1     0.0683
     35 H         0.443659   -3.122446   3.684675 H        1 UNL1     0.1085
     36 H         0.992511   -3.622463   0.661273 H        1 UNL1     0.0691
     37 H         -3.213391   -4.356558   1.295061 H        1 UNL1     0.0691
     38 H         -2.501802   -7.827617   -2.054268 H        1 UNL1     0.0385
     39 H         -2.635955   -7.250034   -3.726675 H        1 UNL1     0.0385
     40 H         -4.623432   -6.647709   -2.29263 H        1 UNL1     0.0789
     41 H         -4.473095   -6.170792   -4.898389 H        1 UNL1     0.0623
     42 H         -4.811283   -4.335214   -6.504148 H        1 UNL1     0.0654
     43 H         -3.91412   -1.468451   -3.433944 H        1 UNL1     0.0654
     44 H         -3.609516   -3.256888   -1.816952 H        1 UNL1     0.0623
     45 H         -4.021007   -2.052701   -6.798278 H        1 UNL1     0.2921
     46 H         1.781846   -4.18363   -1.254636 H        1 UNL1     0.2922
     47 H         -2.046236   -1.086323   1.365859 H        1 UNL1     0.2126
     48 H         1.457442   1.05295   1.733729 H        1 UNL1     0.2101
     49 H         0.422458   -3.324553   -0.683703 H        1 UNL1     0.2100
     50 H         2.210126   -1.767563   3.192124 H        1 UNL1     0.2102
@<TRIPOS>BOND
     1     1     2    1
     2     1     6    1
     3     2     3    1
     4     3     4    1
     5     3    29    1
     6     3    33    1
     7     4     5    1
     8     5     6    1
     9     5     7    1
    10     5    35    1
    11     7     8    1
    12     8     9   ar
    13     8    13   ar
    14     9    10   ar
    15     9    36    1
    16    10    11   ar
    17    10    26    1
    18    11    12   ar
    19    11    14    1
    20    12    13   ar
    21    12    17    1
    22    13    37    1
    23    14    15    1
    24    14    25    2
    25    15    16    1
    26    15    38    1
    27    15    39    1
    28    16    17    1
    29    16    18    1
    30    16    40    1
    31    18    19   ar
    32    18    23   ar
    33    19    20   ar
    34    19    41    1
    35    20    21   ar
    36    20    42    1
    37    21    22   ar
    38    21    24    1
    39    22    23   ar
    40    22    43    1
    41    23    44    1
    42    24    45    1
    43    26    46    1
    44    27    47    1
    45    28    48    1
    46    29    49    1
    47    30    50    1
    48     1    31    1
    49     1    27    1
    50     2    32    1
    51     2    28    1
    52     4    34    1
    53     4    30    1
