@<TRIPOS>MOLECULE
*****
 50 53 0 0 0
SMALL
GASTEIGER

@<TRIPOS>ATOM
     1 C         -0.329993   -1.380982   1.659758 C.3        1 UNL1     0.1889
     2 C         -0.466918   -0.978658   0.166665 C.3        1 UNL1     0.1342
     3 C         -1.910636   -0.940851   -0.357467 C.3        1 UNL1     0.1174
     4 C         -2.799254   -2.016045   0.272956 C.3        1 UNL1     0.1456
     5 C         -2.639165   -2.091908   1.802328 C.3        1 UNL1     0.2326
     6 O         -1.273591   -2.328771   2.136952 O.3        1 UNL1     -0.3076
     7 O         -3.20384   -0.963452   2.494461 O.3        1 UNL1     -0.4605
     8 C         -3.718096   -1.219457   3.752845 C.ar        1 UNL1     0.1310
     9 C         -4.542979   -2.29893   4.086923 C.ar        1 UNL1     0.0226
     10 C         -5.000064   -2.482055   5.397435 C.ar        1 UNL1     0.1343
     11 C         -4.623535   -1.602545   6.4116 C.ar        1 UNL1     0.1007
     12 C         -3.833675   -0.497866   6.08207 C.ar        1 UNL1     0.1389
     13 C         -3.376376   -0.312486   4.76376 C.ar        1 UNL1     0.0229
     14 C         -5.008612   -1.795378   7.828881 C.2        1 UNL1     0.1740
     15 C         -4.335176   -0.885869   8.814187 C.3        1 UNL1     0.0520
     16 C         -4.254525   0.507707   8.206407 C.3        1 UNL1     0.1322
     17 O         -3.493458   0.488403   6.978615 O.3        1 UNL1     -0.4828
     18 C         -5.608491   1.213887   8.102437 C.ar        1 UNL1     -0.0067
     19 C         -5.871457   2.331284   8.92127 C.ar        1 UNL1     -0.0516
     20 C         -7.11615   2.971136   8.885333 C.ar        1 UNL1     -0.0198
     21 C         -8.106423   2.499781   8.042117 C.ar        1 UNL1     0.1169
     22 C         -7.866378   1.422189   7.199494 C.ar        1 UNL1     -0.0198
     23 C         -6.615615   0.793582   7.221847 C.ar        1 UNL1     -0.0516
     24 O         -9.318487   3.125009   8.061887 O.3        1 UNL1     -0.5068
     25 O         -5.764655   -2.685549   8.208983 O.2        1 UNL1     -0.2917
     26 O         -5.802692   -3.554412   5.65709 O.3        1 UNL1     -0.5058
     27 O         -0.213433   -0.271223   2.535906 O.3        1 UNL1     -0.3648
     28 O         0.253684   -1.935867   -0.631576 O.3        1 UNL1     -0.3841
     29 O         -2.460098   0.372677   -0.235528 O.3        1 UNL1     -0.3863
     30 O         -2.462116   -3.301118   -0.293272 O.3        1 UNL1     -0.3829
     31 H         0.628371   -1.902761   1.756524 H        1 UNL1     0.0937
     32 H         0.0   0.0   0.0 H        1 UNL1     0.0671
     33 H         -1.881036   -1.145697   -1.436764 H        1 UNL1     0.0649
     34 H         -3.849765   -1.823654   0.028389 H        1 UNL1     0.0683
     35 H         -3.197277   -2.994136   2.082283 H        1 UNL1     0.1085
     36 H         -4.825306   -3.048484   3.355773 H        1 UNL1     0.0691
     37 H         -2.763553   0.556209   4.53287 H        1 UNL1     0.0691
     38 H         -3.336135   -1.290226   9.008967 H        1 UNL1     0.0385
     39 H         -4.897409   -0.895723   9.754174 H        1 UNL1     0.0385
     40 H         -3.656564   1.125055   8.890399 H        1 UNL1     0.0789
     41 H         -5.113817   2.714911   9.598368 H        1 UNL1     0.0623
     42 H         -7.310712   3.824502   9.530255 H        1 UNL1     0.0654
     43 H         -8.629776   1.054258   6.524393 H        1 UNL1     0.0654
     44 H         -6.459328   -0.038804   6.54247 H        1 UNL1     0.0623
     45 H         -9.363253   3.731229   7.30478 H        1 UNL1     0.2921
     46 H         -5.575286   -3.926356   6.523898 H        1 UNL1     0.2922
     47 H         0.490931   0.319968   2.235533 H        1 UNL1     0.2126
     48 H         1.203719   -1.762535   -0.486237 H        1 UNL1     0.2101
     49 H         -3.003617   0.429903   0.566411 H        1 UNL1     0.2100
     50 H         -2.726798   -3.29381   -1.23646 H        1 UNL1     0.2102
@<TRIPOS>BOND
     1     1     2    1
     2     1     6    1
     3     2     3    1
     4     3     4    1
     5     3    29    1
     6     3    33    1
     7     4     5    1
     8     5     6    1
     9     5     7    1
    10     5    35    1
    11     7     8    1
    12     8     9   ar
    13     8    13   ar
    14     9    10   ar
    15     9    36    1
    16    10    11   ar
    17    10    26    1
    18    11    12   ar
    19    11    14    1
    20    12    13   ar
    21    12    17    1
    22    13    37    1
    23    14    15    1
    24    14    25    2
    25    15    16    1
    26    15    38    1
    27    15    39    1
    28    16    17    1
    29    16    18    1
    30    16    40    1
    31    18    19   ar
    32    18    23   ar
    33    19    20   ar
    34    19    41    1
    35    20    21   ar
    36    20    42    1
    37    21    22   ar
    38    21    24    1
    39    22    23   ar
    40    22    43    1
    41    23    44    1
    42    24    45    1
    43    26    46    1
    44    27    47    1
    45    28    48    1
    46    29    49    1
    47    30    50    1
    48     1    31    1
    49     1    27    1
    50     2    32    1
    51     2    28    1
    52     4    34    1
    53     4    30    1
