@<TRIPOS>MOLECULE
*****
 50 53 0 0 0
SMALL
GASTEIGER

@<TRIPOS>ATOM
     1 C         -0.350651   -1.338213   1.690276 C.3        1 UNL1     0.1889
     2 C         -0.471663   -0.972814   0.186355 C.3        1 UNL1     0.1342
     3 C         -1.910053   -0.943802   -0.352773 C.3        1 UNL1     0.1174
     4 C         -2.808242   -2.000318   0.295416 C.3        1 UNL1     0.1456
     5 C         -2.663375   -2.038524   1.827707 C.3        1 UNL1     0.2326
     6 O         -1.301909   -2.271019   2.181578 O.3        1 UNL1     -0.3076
     7 O         -3.231177   -0.891504   2.485937 O.3        1 UNL1     -0.4605
     8 C         -3.755152   -1.113763   3.746723 C.ar        1 UNL1     0.1310
     9 C         -4.587167   -2.180955   4.1019 C.ar        1 UNL1     0.0226
     10 C         -5.053998   -2.329304   5.413374 C.ar        1 UNL1     0.1343
     11 C         -4.680415   -1.426389   6.40787 C.ar        1 UNL1     0.1007
     12 C         -3.883338   -0.333732   6.056368 C.ar        1 UNL1     0.1389
     13 C         -3.416229   -0.183324   4.737044 C.ar        1 UNL1     0.0229
     14 C         -5.076012   -1.582089   7.826818 C.2        1 UNL1     0.1740
     15 C         -4.4052   -0.651198   8.793773 C.3        1 UNL1     0.0520
     16 C         -4.314104   0.726402   8.151996 C.3        1 UNL1     0.1322
     17 O         -3.544781   0.673129   6.930369 O.3        1 UNL1     -0.4828
     18 C         -5.664121   1.435652   8.021068 C.ar        1 UNL1     -0.0067
     19 C         -6.017614   2.030537   6.792505 C.ar        1 UNL1     -0.0516
     20 C         -7.223613   2.727648   6.652634 C.ar        1 UNL1     -0.0198
     21 C         -8.079379   2.843003   7.733461 C.ar        1 UNL1     0.1169
     22 C         -7.774525   2.239572   8.946628 C.ar        1 UNL1     -0.0198
     23 C         -6.577155   1.526708   9.08148 C.ar        1 UNL1     -0.0516
     24 O         -9.227205   3.561543   7.570383 O.3        1 UNL1     -0.5068
     25 O         -5.838649   -2.459191   8.22376 O.2        1 UNL1     -0.2917
     26 O         -5.863221   -3.391338   5.69413 O.3        1 UNL1     -0.5058
     27 O         -0.239115   -0.207317   2.539641 O.3        1 UNL1     -0.3648
     28 O         0.253646   -1.951746   -0.580669 O.3        1 UNL1     -0.3841
     29 O         -2.456467   0.373977   -0.268988 O.3        1 UNL1     -0.3863
     30 O         -2.4697   -3.300094   -0.235302 O.3        1 UNL1     -0.3829
     31 H         0.605043   -1.860255   1.809447 H        1 UNL1     0.0937
     32 H         0.0   0.0   0.0 H        1 UNL1     0.0671
     33 H         -1.870546   -1.175565   -1.426293 H        1 UNL1     0.0649
     34 H         -3.855687   -1.81097   0.035785 H        1 UNL1     0.0683
     35 H         -3.227091   -2.931839   2.124509 H        1 UNL1     0.1085
     36 H         -4.867893   -2.947299   3.387735 H        1 UNL1     0.0691
     37 H         -2.797923   0.676658   4.488808 H        1 UNL1     0.0691
     38 H         -3.40935   -1.054909   9.005494 H        1 UNL1     0.0385
     39 H         -4.973866   -0.635127   9.729797 H        1 UNL1     0.0385
     40 H         -3.718032   1.35803   8.824503 H        1 UNL1     0.0789
     41 H         -5.358815   1.961988   5.931729 H        1 UNL1     0.0623
     42 H         -7.479396   3.192123   5.703502 H        1 UNL1     0.0654
     43 H         -8.444505   2.310896   9.795126 H        1 UNL1     0.0654
     44 H         -6.376004   1.059074   10.040492 H        1 UNL1     0.0623
     45 H         -8.987779   4.474304   7.341776 H        1 UNL1     0.2921
     46 H         -5.472641   -3.914902   6.411584 H        1 UNL1     0.2922
     47 H         0.503895   0.347081   2.263164 H        1 UNL1     0.2126
     48 H         1.192625   -1.866909   -0.326005 H        1 UNL1     0.2101
     49 H         -2.01572   0.955297   -0.908991 H        1 UNL1     0.2100
     50 H         -2.704267   -3.30784   -1.186423 H        1 UNL1     0.2102
@<TRIPOS>BOND
     1     1     2    1
     2     1     6    1
     3     2     3    1
     4     3     4    1
     5     3    29    1
     6     3    33    1
     7     4     5    1
     8     5     6    1
     9     5     7    1
    10     5    35    1
    11     7     8    1
    12     8     9   ar
    13     8    13   ar
    14     9    10   ar
    15     9    36    1
    16    10    11   ar
    17    10    26    1
    18    11    12   ar
    19    11    14    1
    20    12    13   ar
    21    12    17    1
    22    13    37    1
    23    14    15    1
    24    14    25    2
    25    15    16    1
    26    15    38    1
    27    15    39    1
    28    16    17    1
    29    16    18    1
    30    16    40    1
    31    18    19   ar
    32    18    23   ar
    33    19    20   ar
    34    19    41    1
    35    20    21   ar
    36    20    42    1
    37    21    22   ar
    38    21    24    1
    39    22    23   ar
    40    22    43    1
    41    23    44    1
    42    24    45    1
    43    26    46    1
    44    27    47    1
    45    28    48    1
    46    29    49    1
    47    30    50    1
    48     1    31    1
    49     1    27    1
    50     2    32    1
    51     2    28    1
    52     4    34    1
    53     4    30    1
