@<TRIPOS>MOLECULE
*****
 50 53 0 0 0
SMALL
GASTEIGER

@<TRIPOS>ATOM
     1 C         1.964624   0.910081   0.287766 C.3        1 UNL1     0.1889
     2 C         0.911155   -0.192056   0.580063 C.3        1 UNL1     0.1342
     3 C         0.538311   -0.345716   2.062575 C.3        1 UNL1     0.1174
     4 C         1.720072   -0.090186   3.00133 C.3        1 UNL1     0.1456
     5 C         2.502963   1.182912   2.631645 C.3        1 UNL1     0.2326
     6 O         2.959299   1.098623   1.283491 O.3        1 UNL1     -0.3076
     7 O         1.785208   2.398659   2.911123 O.3        1 UNL1     -0.4605
     8 C         1.868802   3.387247   1.947155 C.ar        1 UNL1     0.1310
     9 C         2.779491   3.408744   0.885325 C.ar        1 UNL1     0.0226
     10 C         2.773815   4.448538   -0.052065 C.ar        1 UNL1     0.1343
     11 C         1.84079   5.480778   0.036163 C.ar        1 UNL1     0.1007
     12 C         0.95308   5.49174   1.115345 C.ar        1 UNL1     0.1389
     13 C         0.96072   4.447503   2.059243 C.ar        1 UNL1     0.0229
     14 C         1.735403   6.559515   -0.973478 C.2        1 UNL1     0.1740
     15 C         0.538613   7.455327   -0.844005 C.3        1 UNL1     0.0520
     16 C         0.307007   7.739343   0.633713 C.3        1 UNL1     0.1322
     17 O         0.065543   6.513909   1.359714 O.3        1 UNL1     -0.4828
     18 C         1.366643   8.649281   1.259739 C.ar        1 UNL1     -0.0067
     19 C         2.471992   8.073372   1.91909 C.ar        1 UNL1     -0.0516
     20 C         3.434264   8.876143   2.543234 C.ar        1 UNL1     -0.0198
     21 C         3.298943   10.252748   2.521457 C.ar        1 UNL1     0.1169
     22 C         2.239313   10.850416   1.85152 C.ar        1 UNL1     -0.0198
     23 C         1.286794   10.048457   1.2115 C.ar        1 UNL1     -0.0516
     24 O         4.235395   11.000818   3.172494 O.3        1 UNL1     -0.5068
     25 O         2.517232   6.685642   -1.912265 O.2        1 UNL1     -0.2917
     26 O         3.689027   4.410857   -1.063278 O.3        1 UNL1     -0.5058
     27 O         1.394381   2.142554   -0.122867 O.3        1 UNL1     -0.3648
     28 O         1.439037   -1.456366   0.137834 O.3        1 UNL1     -0.3841
     29 O         -0.604988   0.449501   2.382936 O.3        1 UNL1     -0.3863
     30 O         2.619026   -1.219292   2.94948 O.3        1 UNL1     -0.3829
     31 H         2.535849   0.573432   -0.584272 H        1 UNL1     0.0937
     32 H         -0.0   0.0   0.0 H        1 UNL1     0.0671
     33 H         0.224106   -1.386481   2.223208 H        1 UNL1     0.0649
     34 H         1.36594   -0.009611   4.035013 H        1 UNL1     0.0683
     35 H         3.392528   1.141899   3.272638 H        1 UNL1     0.1085
     36 H         3.492933   2.606935   0.729687 H        1 UNL1     0.0691
     37 H         0.260076   4.479979   2.89083 H        1 UNL1     0.0691
     38 H         -0.316462   6.931327   -1.28423 H        1 UNL1     0.0385
     39 H         0.711797   8.371097   -1.419463 H        1 UNL1     0.0385
     40 H         -0.636877   8.295594   0.712374 H        1 UNL1     0.0789
     41 H         2.596036   6.995068   1.958132 H        1 UNL1     0.0623
     42 H         4.275734   8.419741   3.058634 H        1 UNL1     0.0654
     43 H         2.13183   11.927938   1.815406 H        1 UNL1     0.0654
     44 H         0.477782   10.549385   0.688609 H        1 UNL1     0.0623
     45 H         4.408414   10.591944   4.035977 H        1 UNL1     0.2921
     46 H         4.460734   3.894314   -0.782097 H        1 UNL1     0.2922
     47 H         0.749056   1.994391   -0.828178 H        1 UNL1     0.2126
     48 H         2.071406   -1.259762   -0.579932 H        1 UNL1     0.2101
     49 H         -0.479897   0.874557   3.246344 H        1 UNL1     0.2100
     50 H         2.910581   -1.330166   2.020817 H        1 UNL1     0.2102
@<TRIPOS>BOND
     1     1     2    1
     2     1     6    1
     3     2     3    1
     4     3     4    1
     5     3    29    1
     6     3    33    1
     7     4     5    1
     8     5     6    1
     9     5     7    1
    10     5    35    1
    11     7     8    1
    12     8     9   ar
    13     8    13   ar
    14     9    10   ar
    15     9    36    1
    16    10    11   ar
    17    10    26    1
    18    11    12   ar
    19    11    14    1
    20    12    13   ar
    21    12    17    1
    22    13    37    1
    23    14    15    1
    24    14    25    2
    25    15    16    1
    26    15    38    1
    27    15    39    1
    28    16    17    1
    29    16    18    1
    30    16    40    1
    31    18    19   ar
    32    18    23   ar
    33    19    20   ar
    34    19    41    1
    35    20    21   ar
    36    20    42    1
    37    21    22   ar
    38    21    24    1
    39    22    23   ar
    40    22    43    1
    41    23    44    1
    42    24    45    1
    43    26    46    1
    44    27    47    1
    45    28    48    1
    46    29    49    1
    47    30    50    1
    48     1    31    1
    49     1    27    1
    50     2    32    1
    51     2    28    1
    52     4    34    1
    53     4    30    1
