@<TRIPOS>MOLECULE
*****
 50 53 0 0 0
SMALL
GASTEIGER

@<TRIPOS>ATOM
     1 C         0.066778   -1.662149   1.415488 C.3        1 UNL1     0.1889
     2 C         -0.638995   -0.434917   0.778521 C.3        1 UNL1     0.1342
     3 C         -1.034701   0.665731   1.774742 C.3        1 UNL1     0.1174
     4 C         -1.457053   0.109475   3.136842 C.3        1 UNL1     0.1456
     5 C         -0.483509   -0.959759   3.665343 C.3        1 UNL1     0.2326
     6 O         -0.366161   -2.020264   2.719601 O.3        1 UNL1     -0.3076
     7 O         0.787801   -0.424593   4.076059 O.3        1 UNL1     -0.4605
     8 C         1.859162   -1.29798   4.022106 C.ar        1 UNL1     0.1310
     9 C         3.207926   -0.930288   4.076316 C.ar        1 UNL1     0.0226
     10 C         4.222991   -1.893373   4.031451 C.ar        1 UNL1     0.1343
     11 C         3.913058   -3.250564   3.955198 C.ar        1 UNL1     0.1007
     12 C         2.570847   -3.627416   3.859086 C.ar        1 UNL1     0.1389
     13 C         1.550469   -2.658677   3.901554 C.ar        1 UNL1     0.0229
     14 C         4.942728   -4.314884   3.989182 C.2        1 UNL1     0.1740
     15 C         4.423684   -5.716381   4.123157 C.3        1 UNL1     0.0520
     16 C         3.181226   -5.855129   3.254246 C.3        1 UNL1     0.1322
     17 O         2.156986   -4.925861   3.671935 O.3        1 UNL1     -0.4828
     18 C         3.47519   -5.842173   1.7522 C.ar        1 UNL1     -0.0067
     19 C         4.019138   -6.991632   1.143039 C.ar        1 UNL1     -0.0516
     20 C         4.343861   -6.997435   -0.218756 C.ar        1 UNL1     -0.0198
     21 C         4.13673   -5.860281   -0.978891 C.ar        1 UNL1     0.1169
     22 C         3.571497   -4.723878   -0.415031 C.ar        1 UNL1     -0.0198
     23 C         3.229549   -4.723879   0.942587 C.ar        1 UNL1     -0.0516
     24 O         4.500274   -5.890904   -2.293159 O.3        1 UNL1     -0.5068
     25 O         6.149801   -4.088038   3.990685 O.2        1 UNL1     -0.2917
     26 O         5.518436   -1.468768   4.08728 O.3        1 UNL1     -0.5058
     27 O         1.481881   -1.607905   1.329888 O.3        1 UNL1     -0.3648
     28 O         -1.84611   -0.885519   0.136232 O.3        1 UNL1     -0.3841
     29 O         -0.006143   1.652741   1.874794 O.3        1 UNL1     -0.3863
     30 O         -2.772124   -0.476308   3.022229 O.3        1 UNL1     -0.3829
     31 H         -0.207053   -2.531076   0.807161 H        1 UNL1     0.0937
     32 H         0.0   0.0   0.0 H        1 UNL1     0.0671
     33 H         -1.906287   1.193333   1.362803 H        1 UNL1     0.0649
     34 H         -1.531186   0.923396   3.866526 H        1 UNL1     0.0683
     35 H         -0.994732   -1.371553   4.544523 H        1 UNL1     0.1085
     36 H         3.512772   0.104005   4.192195 H        1 UNL1     0.0691
     37 H         0.513384   -2.977908   3.823846 H        1 UNL1     0.0691
     38 H         4.187367   -5.882449   5.179614 H        1 UNL1     0.0385
     39 H         5.21172   -6.420145   3.834205 H        1 UNL1     0.0385
     40 H         2.752735   -6.845794   3.457954 H        1 UNL1     0.0789
     41 H         4.199768   -7.893888   1.720064 H        1 UNL1     0.0623
     42 H         4.773783   -7.886099   -0.674227 H        1 UNL1     0.0654
     43 H         3.391056   -3.83291   -1.004546 H        1 UNL1     0.0654
     44 H         2.780131   -3.822308   1.347604 H        1 UNL1     0.0623
     45 H         3.717224   -6.112103   -2.822895 H        1 UNL1     0.2921
     46 H         6.109368   -2.237303   4.126842 H        1 UNL1     0.2922
     47 H         1.767064   -1.735567   0.414337 H        1 UNL1     0.2126
     48 H         -1.876666   -0.451227   -0.737947 H        1 UNL1     0.2101
     49 H         -0.350747   2.51747   1.600411 H        1 UNL1     0.2100
     50 H         -3.114855   -0.627334   3.927458 H        1 UNL1     0.2102
@<TRIPOS>BOND
     1     1     2    1
     2     1     6    1
     3     2     3    1
     4     3     4    1
     5     3    29    1
     6     3    33    1
     7     4     5    1
     8     5     6    1
     9     5     7    1
    10     5    35    1
    11     7     8    1
    12     8     9   ar
    13     8    13   ar
    14     9    10   ar
    15     9    36    1
    16    10    11   ar
    17    10    26    1
    18    11    12   ar
    19    11    14    1
    20    12    13   ar
    21    12    17    1
    22    13    37    1
    23    14    15    1
    24    14    25    2
    25    15    16    1
    26    15    38    1
    27    15    39    1
    28    16    17    1
    29    16    18    1
    30    16    40    1
    31    18    19   ar
    32    18    23   ar
    33    19    20   ar
    34    19    41    1
    35    20    21   ar
    36    20    42    1
    37    21    22   ar
    38    21    24    1
    39    22    23   ar
    40    22    43    1
    41    23    44    1
    42    24    45    1
    43    26    46    1
    44    27    47    1
    45    28    48    1
    46    29    49    1
    47    30    50    1
    48     1    31    1
    49     1    27    1
    50     2    32    1
    51     2    28    1
    52     4    34    1
    53     4    30    1
