@<TRIPOS>MOLECULE
*****
 50 53 0 0 0
SMALL
GASTEIGER

@<TRIPOS>ATOM
     1 C         -0.68219   -1.03227   1.799956 C.3        1 UNL1     0.1889
     2 C         -0.546959   -0.915365   0.257884 C.3        1 UNL1     0.1342
     3 C         -1.879836   -0.934712   -0.506008 C.3        1 UNL1     0.1174
     4 C         -2.924092   -1.844804   0.145436 C.3        1 UNL1     0.1456
     5 C         -3.022504   -1.635099   1.667507 C.3        1 UNL1     0.2326
     6 O         -1.747592   -1.84463   2.270471 O.3        1 UNL1     -0.3076
     7 O         -3.623139   -0.380076   2.035577 O.3        1 UNL1     -0.4605
     8 C         -4.342078   -0.375564   3.217369 C.ar        1 UNL1     0.1310
     9 C         -5.272111   -1.346646   3.603812 C.ar        1 UNL1     0.0226
     10 C         -5.938469   -1.262332   4.832128 C.ar        1 UNL1     0.1343
     11 C         -5.673089   -0.216495   5.7151 C.ar        1 UNL1     0.1007
     12 C         -4.776788   0.781212   5.322658 C.ar        1 UNL1     0.1389
     13 C         -4.108865   0.697612   4.086406 C.ar        1 UNL1     0.0229
     14 C         -6.285717   -0.123391   7.060527 C.2        1 UNL1     0.1740
     15 C         -5.721311   0.937682   7.958925 C.3        1 UNL1     0.0520
     16 C         -5.463464   2.186344   7.12687 C.3        1 UNL1     0.1322
     17 O         -4.522443   1.910359   6.06603 O.3        1 UNL1     -0.4828
     18 C         -6.739854   2.898871   6.673156 C.ar        1 UNL1     -0.0067
     19 C         -6.880289   3.274098   5.321232 C.ar        1 UNL1     -0.0516
     20 C         -8.013752   3.968985   4.882645 C.ar        1 UNL1     -0.0198
     21 C         -9.008151   4.300242   5.785567 C.ar        1 UNL1     0.1169
     22 C         -8.914036   3.915241   7.11664 C.ar        1 UNL1     -0.0198
     23 C         -7.789242   3.20421   7.551761 C.ar        1 UNL1     -0.0516
     24 O         -10.079627   5.010394   5.32947 O.3        1 UNL1     -0.5068
     25 O         -7.143748   -0.901958   7.468082 O.2        1 UNL1     -0.2917
     26 O         -6.834508   -2.241316   5.14881 O.3        1 UNL1     -0.5058
     27 O         -0.643539   0.219083   2.467345 O.3        1 UNL1     -0.3648
     28 O         0.235106   -2.026937   -0.216972 O.3        1 UNL1     -0.3841
     29 O         -2.360448   0.393815   -0.720859 O.3        1 UNL1     -0.3863
     30 O         -2.577745   -3.223067   -0.111713 O.3        1 UNL1     -0.3829
     31 H         0.213487   -1.55439   2.153839 H        1 UNL1     0.0937
     32 H         0.0   0.0   -0.0 H        1 UNL1     0.0671
     33 H         -1.685829   -1.340523   -1.508704 H        1 UNL1     0.0649
     34 H         -3.906348   -1.671199   -0.307813 H        1 UNL1     0.0683
     35 H         -3.673187   -2.451357   2.005462 H        1 UNL1     0.1085
     36 H         -5.481063   -2.213613   2.986699 H        1 UNL1     0.0691
     37 H         -3.416635   1.48783   3.8038 H        1 UNL1     0.0691
     38 H         -4.790976   0.549015   8.386641 H        1 UNL1     0.0385
     39 H         -6.423077   1.124208   8.778993 H        1 UNL1     0.0385
     40 H         -4.943869   2.905358   7.774604 H        1 UNL1     0.0789
     41 H         -6.109536   3.033864   4.594681 H        1 UNL1     0.0623
     42 H         -8.104873   4.263187   3.839979 H        1 UNL1     0.0654
     43 H         -9.693924   4.156325   7.829074 H        1 UNL1     0.0654
     44 H         -7.753695   2.910226   8.596344 H        1 UNL1     0.0623
     45 H         -9.759294   5.85666   4.977422 H        1 UNL1     0.2921
     46 H         -6.582709   -2.649886   5.992066 H        1 UNL1     0.2922
     47 H         0.167138   0.695214   2.239394 H        1 UNL1     0.2126
     48 H         1.112737   -1.951878   0.204766 H        1 UNL1     0.2101
     49 H         -1.789366   0.852429   -1.357516 H        1 UNL1     0.2100
     50 H         -2.655547   -3.378675   -1.07579 H        1 UNL1     0.2102
@<TRIPOS>BOND
     1     1     2    1
     2     1     6    1
     3     2     3    1
     4     3     4    1
     5     3    29    1
     6     3    33    1
     7     4     5    1
     8     5     6    1
     9     5     7    1
    10     5    35    1
    11     7     8    1
    12     8     9   ar
    13     8    13   ar
    14     9    10   ar
    15     9    36    1
    16    10    11   ar
    17    10    26    1
    18    11    12   ar
    19    11    14    1
    20    12    13   ar
    21    12    17    1
    22    13    37    1
    23    14    15    1
    24    14    25    2
    25    15    16    1
    26    15    38    1
    27    15    39    1
    28    16    17    1
    29    16    18    1
    30    16    40    1
    31    18    19   ar
    32    18    23   ar
    33    19    20   ar
    34    19    41    1
    35    20    21   ar
    36    20    42    1
    37    21    22   ar
    38    21    24    1
    39    22    23   ar
    40    22    43    1
    41    23    44    1
    42    24    45    1
    43    26    46    1
    44    27    47    1
    45    28    48    1
    46    29    49    1
    47    30    50    1
    48     1    31    1
    49     1    27    1
    50     2    32    1
    51     2    28    1
    52     4    34    1
    53     4    30    1
