@<TRIPOS>MOLECULE
*****
 50 53 0 0 0
SMALL
GASTEIGER

@<TRIPOS>ATOM
     1 C         -1.44731   -1.318851   0.967848 C.3        1 UNL1     0.1889
     2 C         -0.875894   -0.597253   -0.28224 C.3        1 UNL1     0.1342
     3 C         -1.880255   0.302935   -1.01803 C.3        1 UNL1     0.1174
     4 C         -3.306737   -0.251492   -0.988436 C.3        1 UNL1     0.1456
     5 C         -3.727363   -0.723881   0.415232 C.3        1 UNL1     0.2326
     6 O         -2.811194   -1.706771   0.892129 O.3        1 UNL1     -0.3076
     7 O         -3.934485   0.355004   1.344978 O.3        1 UNL1     -0.4605
     8 C         -4.894571   0.141171   2.317623 C.ar        1 UNL1     0.1310
     9 C         -6.168859   -0.391726   2.095109 C.ar        1 UNL1     0.0226
     10 C         -7.066513   -0.586417   3.151619 C.ar        1 UNL1     0.1343
     11 C         -6.702558   -0.274785   4.460918 C.ar        1 UNL1     0.1007
     12 C         -5.447897   0.296212   4.690203 C.ar        1 UNL1     0.1389
     13 C         -4.546477   0.494331   3.627366 C.ar        1 UNL1     0.0229
     14 C         -7.579936   -0.538015   5.624994 C.2        1 UNL1     0.1740
     15 C         -6.945548   -0.350263   6.971787 C.3        1 UNL1     0.0520
     16 C         -6.062677   0.889015   6.919941 C.3        1 UNL1     0.1322
     17 O         -5.028114   0.740229   5.922638 O.3        1 UNL1     -0.4828
     18 C         -6.846476   2.200621   6.830099 C.ar        1 UNL1     -0.0067
     19 C         -6.483298   3.15952   5.862201 C.ar        1 UNL1     -0.0516
     20 C         -7.148478   4.388911   5.784124 C.ar        1 UNL1     -0.0198
     21 C         -8.171311   4.67374   6.670979 C.ar        1 UNL1     0.1169
     22 C         -8.573991   3.736471   7.613431 C.ar        1 UNL1     -0.0198
     23 C         -7.921233   2.499713   7.679708 C.ar        1 UNL1     -0.0516
     24 O         -8.770757   5.896195   6.589314 O.3        1 UNL1     -0.5068
     25 O         -8.728781   -0.960418   5.52392 O.2        1 UNL1     -0.2917
     26 O         -8.294359   -1.109037   2.867283 O.3        1 UNL1     -0.5058
     27 O         -1.15936   -0.651948   2.1865 O.3        1 UNL1     -0.3648
     28 O         -0.427677   -1.594171   -1.219236 O.3        1 UNL1     -0.3841
     29 O         -1.799233   1.647885   -0.541922 O.3        1 UNL1     -0.3863
     30 O         -3.400482   -1.366938   -1.90095 O.3        1 UNL1     -0.3829
     31 H         -0.914083   -2.272291   1.0497 H        1 UNL1     0.0937
     32 H         0.0   0.0   0.0 H        1 UNL1     0.0671
     33 H         -1.578857   0.348536   -2.073871 H        1 UNL1     0.0649
     34 H         -4.011416   0.510276   -1.339915 H        1 UNL1     0.0683
     35 H         -4.683858   -1.234437   0.24692 H        1 UNL1     0.1085
     36 H         -6.491155   -0.70607   1.108482 H        1 UNL1     0.0691
     37 H         -3.576159   0.941605   3.832111 H        1 UNL1     0.0691
     38 H         -6.355097   -1.247085   7.187668 H        1 UNL1     0.0385
     39 H         -7.731402   -0.26735   7.730296 H        1 UNL1     0.0385
     40 H         -5.51965   0.939723   7.873393 H        1 UNL1     0.0789
     41 H         -5.677708   2.963635   5.160557 H        1 UNL1     0.0623
     42 H         -6.851248   5.124818   5.041084 H        1 UNL1     0.0654
     43 H         -9.383747   3.94327   8.302952 H        1 UNL1     0.0654
     44 H         -8.268946   1.787083   8.421395 H        1 UNL1     0.0623
     45 H         -8.098094   6.578683   6.745682 H        1 UNL1     0.2921
     46 H         -8.432792   -1.913641   3.391555 H        1 UNL1     0.2922
     47 H         -0.204943   -0.526038   2.281864 H        1 UNL1     0.2126
     48 H         0.277135   -2.101305   -0.772261 H        1 UNL1     0.2101
     49 H         -0.958234   2.045647   -0.818144 H        1 UNL1     0.2100
     50 H         -3.268112   -1.025198   -2.809468 H        1 UNL1     0.2102
@<TRIPOS>BOND
     1     1     2    1
     2     1     6    1
     3     2     3    1
     4     3     4    1
     5     3    29    1
     6     3    33    1
     7     4     5    1
     8     5     6    1
     9     5     7    1
    10     5    35    1
    11     7     8    1
    12     8     9   ar
    13     8    13   ar
    14     9    10   ar
    15     9    36    1
    16    10    11   ar
    17    10    26    1
    18    11    12   ar
    19    11    14    1
    20    12    13   ar
    21    12    17    1
    22    13    37    1
    23    14    15    1
    24    14    25    2
    25    15    16    1
    26    15    38    1
    27    15    39    1
    28    16    17    1
    29    16    18    1
    30    16    40    1
    31    18    19   ar
    32    18    23   ar
    33    19    20   ar
    34    19    41    1
    35    20    21   ar
    36    20    42    1
    37    21    22   ar
    38    21    24    1
    39    22    23   ar
    40    22    43    1
    41    23    44    1
    42    24    45    1
    43    26    46    1
    44    27    47    1
    45    28    48    1
    46    29    49    1
    47    30    50    1
    48     1    31    1
    49     1    27    1
    50     2    32    1
    51     2    28    1
    52     4    34    1
    53     4    30    1
