@<TRIPOS>MOLECULE
*****
 50 53 0 0 0
SMALL
GASTEIGER

@<TRIPOS>ATOM
     1 C         0.600102   0.768672   -1.954437 C.3        1 UNL1     0.1889
     2 C         -0.229078   0.857332   -0.645033 C.3        1 UNL1     0.1342
     3 C         -1.74931   0.936033   -0.852802 C.3        1 UNL1     0.1174
     4 C         -2.136901   1.722128   -2.107769 C.3        1 UNL1     0.1456
     5 C         -1.308516   1.313478   -3.339494 C.3        1 UNL1     0.2326
     6 O         0.08114   1.4808   -3.067967 O.3        1 UNL1     -0.3076
     7 O         -1.633584   0.003889   -3.840125 O.3        1 UNL1     -0.4605
     8 C         -1.878112   -0.966655   -2.885255 C.ar        1 UNL1     0.1310
     9 C         -0.930795   -1.864256   -2.381067 C.ar        1 UNL1     0.0226
     10 C         -1.273011   -2.802282   -1.399793 C.ar        1 UNL1     0.1343
     11 C         -2.566335   -2.84968   -0.881229 C.ar        1 UNL1     0.1007
     12 C         -3.531247   -1.985875   -1.406175 C.ar        1 UNL1     0.1389
     13 C         -3.187551   -1.044561   -2.394725 C.ar        1 UNL1     0.0229
     14 C         -2.961228   -3.763694   0.215489 C.2        1 UNL1     0.1740
     15 C         -4.322865   -3.526646   0.799699 C.3        1 UNL1     0.0520
     16 C         -5.284433   -3.202797   -0.335408 C.3        1 UNL1     0.1322
     17 O         -4.858532   -2.019498   -1.04638 O.3        1 UNL1     -0.4828
     18 C         -5.604691   -4.40095   -1.232397 C.ar        1 UNL1     -0.0067
     19 C         -4.935197   -4.541536   -2.465371 C.ar        1 UNL1     -0.0516
     20 C         -5.238319   -5.599404   -3.330816 C.ar        1 UNL1     -0.0198
     21 C         -6.211941   -6.517033   -2.978897 C.ar        1 UNL1     0.1169
     22 C         -6.864887   -6.424269   -1.756647 C.ar        1 UNL1     -0.0198
     23 C         -6.548892   -5.377021   -0.882876 C.ar        1 UNL1     -0.0516
     24 O         -6.506876   -7.512172   -3.863833 O.3        1 UNL1     -0.5068
     25 O         -2.212854   -4.614803   0.688814 O.2        1 UNL1     -0.2917
     26 O         -0.302702   -3.650041   -0.951029 O.3        1 UNL1     -0.5058
     27 O         0.964435   -0.557111   -2.304219 O.3        1 UNL1     -0.3648
     28 O         0.167998   2.044049   0.066822 O.3        1 UNL1     -0.3841
     29 O         -2.334613   -0.367035   -0.813211 O.3        1 UNL1     -0.3863
     30 O         -1.94043   3.131844   -1.863248 O.3        1 UNL1     -0.3829
     31 H         1.555014   1.266854   -1.754348 H        1 UNL1     0.0937
     32 H         0.0   0.0   0.0 H        1 UNL1     0.0671
     33 H         -2.177482   1.474368   0.004277 H        1 UNL1     0.0649
     34 H         -3.201414   1.579682   -2.324385 H        1 UNL1     0.0683
     35 H         -1.577281   2.059081   -4.098256 H        1 UNL1     0.1085
     36 H         0.104632   -1.840917   -2.70273 H        1 UNL1     0.0691
     37 H         -3.95745   -0.38405   -2.787756 H        1 UNL1     0.0691
     38 H         -4.241525   -2.68827   1.499725 H        1 UNL1     0.0385
     39 H         -4.631171   -4.41397   1.363064 H        1 UNL1     0.0385
     40 H         -6.241572   -2.918444   0.122355 H        1 UNL1     0.0789
     41 H         -4.173443   -3.829238   -2.76871 H        1 UNL1     0.0623
     42 H         -4.723517   -5.690205   -4.284097 H        1 UNL1     0.0654
     43 H         -7.618311   -7.146006   -1.464488 H        1 UNL1     0.0654
     44 H         -7.071153   -5.341286   0.068339 H        1 UNL1     0.0623
     45 H         -7.397441   -7.354502   -4.217035 H        1 UNL1     0.2921
     46 H         0.36202   -3.777875   -1.646165 H        1 UNL1     0.2922
     47 H         0.600944   -0.786643   -3.17085 H        1 UNL1     0.2126
     48 H         0.943654   1.799519   0.607465 H        1 UNL1     0.2101
     49 H         -2.569412   -0.59573   0.100223 H        1 UNL1     0.2100
     50 H         -1.997591   3.597831   -2.723074 H        1 UNL1     0.2102
@<TRIPOS>BOND
     1     1     2    1
     2     1     6    1
     3     2     3    1
     4     3     4    1
     5     3    29    1
     6     3    33    1
     7     4     5    1
     8     5     6    1
     9     5     7    1
    10     5    35    1
    11     7     8    1
    12     8     9   ar
    13     8    13   ar
    14     9    10   ar
    15     9    36    1
    16    10    11   ar
    17    10    26    1
    18    11    12   ar
    19    11    14    1
    20    12    13   ar
    21    12    17    1
    22    13    37    1
    23    14    15    1
    24    14    25    2
    25    15    16    1
    26    15    38    1
    27    15    39    1
    28    16    17    1
    29    16    18    1
    30    16    40    1
    31    18    19   ar
    32    18    23   ar
    33    19    20   ar
    34    19    41    1
    35    20    21   ar
    36    20    42    1
    37    21    22   ar
    38    21    24    1
    39    22    23   ar
    40    22    43    1
    41    23    44    1
    42    24    45    1
    43    26    46    1
    44    27    47    1
    45    28    48    1
    46    29    49    1
    47    30    50    1
    48     1    31    1
    49     1    27    1
    50     2    32    1
    51     2    28    1
    52     4    34    1
    53     4    30    1
