@<TRIPOS>MOLECULE
*****
 50 53 0 0 0
SMALL
GASTEIGER

@<TRIPOS>ATOM
     1 C         -0.207964   -2.159453   0.253611 C.3        1 UNL1     0.1889
     2 C         -0.807658   -0.738234   0.07913 C.3        1 UNL1     0.1342
     3 C         -1.772362   -0.3079   1.194757 C.3        1 UNL1     0.1174
     4 C         -2.601657   -1.471482   1.743815 C.3        1 UNL1     0.1456
     5 C         -1.747774   -2.719028   2.035149 C.3        1 UNL1     0.2326
     6 O         -1.059963   -3.124006   0.853719 O.3        1 UNL1     -0.3076
     7 O         -0.878287   -2.565888   3.17175 O.3        1 UNL1     -0.4605
     8 C         -1.126431   -3.405957   4.242374 C.ar        1 UNL1     0.1310
     9 C         -0.455848   -3.374088   5.469812 C.ar        1 UNL1     0.0226
     10 C         -0.792528   -4.258346   6.501624 C.ar        1 UNL1     0.1343
     11 C         -1.82507   -5.181013   6.339189 C.ar        1 UNL1     0.1007
     12 C         -2.474481   -5.249902   5.103753 C.ar        1 UNL1     0.1389
     13 C         -2.133986   -4.362449   4.065523 C.ar        1 UNL1     0.0229
     14 C         -2.278233   -6.081784   7.424274 C.2        1 UNL1     0.1740
     15 C         -3.539383   -6.84677   7.148871 C.3        1 UNL1     0.0520
     16 C         -3.511767   -7.31599   5.700759 C.3        1 UNL1     0.1322
     17 O         -3.430609   -6.190609   4.798539 O.3        1 UNL1     -0.4828
     18 C         -2.4876   -8.420869   5.43048 C.ar        1 UNL1     -0.0067
     19 C         -1.954854   -8.569123   4.1334 C.ar        1 UNL1     -0.0516
     20 C         -1.052285   -9.598577   3.840903 C.ar        1 UNL1     -0.0198
     21 C         -0.681081   -10.488715   4.832714 C.ar        1 UNL1     0.1169
     22 C         -1.16275   -10.348386   6.127759 C.ar        1 UNL1     -0.0198
     23 C         -2.051051   -9.307886   6.424975 C.ar        1 UNL1     -0.0516
     24 O         0.170574   -11.5013   4.501422 O.3        1 UNL1     -0.5068
     25 O         -1.723017   -6.156272   8.517284 O.2        1 UNL1     -0.2917
     26 O         -0.099249   -4.176223   7.673889 O.3        1 UNL1     -0.5058
     27 O         1.081897   -2.160186   0.844409 O.3        1 UNL1     -0.3648
     28 O         -1.541096   -0.701525   -1.159187 O.3        1 UNL1     -0.3841
     29 O         -1.077344   0.407662   2.218014 O.3        1 UNL1     -0.3863
     30 O         -3.621548   -1.821194   0.782975 O.3        1 UNL1     -0.3829
     31 H         -0.043059   -2.555326   -0.754442 H        1 UNL1     0.0937
     32 H         0.0   0.0   0.0 H        1 UNL1     0.0671
     33 H         -2.481806   0.413025   0.765019 H        1 UNL1     0.0649
     34 H         -3.116865   -1.163734   2.660467 H        1 UNL1     0.0683
     35 H         -2.486544   -3.499219   2.25741 H        1 UNL1     0.1085
     36 H         0.318011   -2.643387   5.677989 H        1 UNL1     0.0691
     37 H         -2.65388   -4.437286   3.112841 H        1 UNL1     0.0691
     38 H         -4.38249   -6.171355   7.329182 H        1 UNL1     0.0385
     39 H         -3.613585   -7.682141   7.853447 H        1 UNL1     0.0385
     40 H         -4.48997   -7.76821   5.488307 H        1 UNL1     0.0789
     41 H         -2.237517   -7.888919   3.335231 H        1 UNL1     0.0623
     42 H         -0.657666   -9.709624   2.833949 H        1 UNL1     0.0654
     43 H         -0.866955   -11.030796   6.915626 H        1 UNL1     0.0654
     44 H         -2.399247   -9.221724   7.449758 H        1 UNL1     0.0623
     45 H         0.352425   -11.449878   3.549055 H        1 UNL1     0.2921
     46 H         -0.606983   -4.605133   8.380751 H        1 UNL1     0.2922
     47 H         1.517478   -3.011196   0.696384 H        1 UNL1     0.2126
     48 H         -1.038693   -1.243068   -1.797979 H        1 UNL1     0.2101
     49 H         -1.66792   1.063728   2.621239 H        1 UNL1     0.2100
     50 H         -3.974415   -2.702431   1.025089 H        1 UNL1     0.2102
@<TRIPOS>BOND
     1     1     2    1
     2     1     6    1
     3     2     3    1
     4     3     4    1
     5     3    29    1
     6     3    33    1
     7     4     5    1
     8     5     6    1
     9     5     7    1
    10     5    35    1
    11     7     8    1
    12     8     9   ar
    13     8    13   ar
    14     9    10   ar
    15     9    36    1
    16    10    11   ar
    17    10    26    1
    18    11    12   ar
    19    11    14    1
    20    12    13   ar
    21    12    17    1
    22    13    37    1
    23    14    15    1
    24    14    25    2
    25    15    16    1
    26    15    38    1
    27    15    39    1
    28    16    17    1
    29    16    18    1
    30    16    40    1
    31    18    19   ar
    32    18    23   ar
    33    19    20   ar
    34    19    41    1
    35    20    21   ar
    36    20    42    1
    37    21    22   ar
    38    21    24    1
    39    22    23   ar
    40    22    43    1
    41    23    44    1
    42    24    45    1
    43    26    46    1
    44    27    47    1
    45    28    48    1
    46    29    49    1
    47    30    50    1
    48     1    31    1
    49     1    27    1
    50     2    32    1
    51     2    28    1
    52     4    34    1
    53     4    30    1
