@<TRIPOS>MOLECULE
*****
 50 53 0 0 0
SMALL
GASTEIGER

@<TRIPOS>ATOM
     1 C         -0.297036   1.081571   1.874241 C.3        1 UNL1     0.1889
     2 C         0.131337   -0.17814   1.074513 C.3        1 UNL1     0.1342
     3 C         -0.609368   -1.466896   1.46301 C.3        1 UNL1     0.1174
     4 C         -0.941554   -1.533513   2.95577 C.3        1 UNL1     0.1456
     5 C         -1.549225   -0.221369   3.48433 C.3        1 UNL1     0.2326
     6 O         -0.65974   0.863458   3.229699 O.3        1 UNL1     -0.3076
     7 O         -2.887243   0.021395   3.013061 O.3        1 UNL1     -0.4605
     8 C         -3.899896   -0.17815   3.934063 C.ar        1 UNL1     0.1310
     9 C         -5.075943   -0.899447   3.701807 C.ar        1 UNL1     0.0226
     10 C         -6.036818   -1.060269   4.707172 C.ar        1 UNL1     0.1343
     11 C         -5.833782   -0.523295   5.977714 C.ar        1 UNL1     0.1007
     12 C         -4.682295   0.233768   6.209479 C.ar        1 UNL1     0.1389
     13 C         -3.717527   0.397562   5.197636 C.ar        1 UNL1     0.0229
     14 C         -6.77628   -0.733655   7.100924 C.2        1 UNL1     0.1740
     15 C         -6.294551   -0.277538   8.446822 C.3        1 UNL1     0.0520
     16 C         -5.564523   1.047244   8.273706 C.3        1 UNL1     0.1322
     17 O         -4.432802   0.897223   7.388397 O.3        1 UNL1     -0.4828
     18 C         -6.487417   2.219087   7.930524 C.ar        1 UNL1     -0.0067
     19 C         -5.978059   3.533571   7.960504 C.ar        1 UNL1     -0.0516
     20 C         -6.806626   4.631152   7.69829 C.ar        1 UNL1     -0.0198
     21 C         -8.144971   4.42843   7.412698 C.ar        1 UNL1     0.1169
     22 C         -8.668296   3.143868   7.342901 C.ar        1 UNL1     -0.0198
     23 C         -7.835768   2.045049   7.586932 C.ar        1 UNL1     -0.0516
     24 O         -8.929646   5.523617   7.199978 O.3        1 UNL1     -0.5068
     25 O         -7.852565   -1.31305   6.980931 O.2        1 UNL1     -0.2917
     26 O         -7.162522   -1.774049   4.41581 O.3        1 UNL1     -0.5058
     27 O         -1.253726   1.882025   1.198368 O.3        1 UNL1     -0.3648
     28 O         1.534856   -0.406131   1.300039 O.3        1 UNL1     -0.3841
     29 O         -1.755029   -1.663483   0.631778 O.3        1 UNL1     -0.3863
     30 O         0.264625   -1.818142   3.697261 O.3        1 UNL1     -0.3829
     31 H         0.588418   1.722578   1.946077 H        1 UNL1     0.0937
     32 H         0.0   0.0   0.0 H        1 UNL1     0.0671
     33 H         0.056365   -2.314278   1.247456 H        1 UNL1     0.0649
     34 H         -1.637703   -2.35752   3.147577 H        1 UNL1     0.0683
     35 H         -1.577338   -0.362195   4.572106 H        1 UNL1     0.1085
     36 H         -5.266965   -1.388421   2.752841 H        1 UNL1     0.0691
     37 H         -2.830184   0.992471   5.403058 H        1 UNL1     0.0691
     38 H         -5.62373   -1.05001   8.837733 H        1 UNL1     0.0385
     39 H         -7.15071   -0.192993   9.124778 H        1 UNL1     0.0385
     40 H         -5.120845   1.301785   9.245754 H        1 UNL1     0.0789
     41 H         -4.933162   3.719741   8.191113 H        1 UNL1     0.0623
     42 H         -6.404695   5.640622   7.736152 H        1 UNL1     0.0654
     43 H         -9.71149   2.972934   7.105333 H        1 UNL1     0.0654
     44 H         -8.275717   1.05515   7.513519 H        1 UNL1     0.0623
     45 H         -9.836349   5.308972   7.472987 H        1 UNL1     0.2921
     46 H         -7.912708   -1.167367   4.313 H        1 UNL1     0.2922
     47 H         -0.869069   2.738575   0.965517 H        1 UNL1     0.2126
     48 H         1.62333   -0.715554   2.222082 H        1 UNL1     0.2101
     49 H         -1.666711   -2.495069   0.139376 H        1 UNL1     0.2100
     50 H         0.941145   -2.133716   3.062875 H        1 UNL1     0.2102
@<TRIPOS>BOND
     1     1     2    1
     2     1     6    1
     3     2     3    1
     4     3     4    1
     5     3    29    1
     6     3    33    1
     7     4     5    1
     8     5     6    1
     9     5     7    1
    10     5    35    1
    11     7     8    1
    12     8     9   ar
    13     8    13   ar
    14     9    10   ar
    15     9    36    1
    16    10    11   ar
    17    10    26    1
    18    11    12   ar
    19    11    14    1
    20    12    13   ar
    21    12    17    1
    22    13    37    1
    23    14    15    1
    24    14    25    2
    25    15    16    1
    26    15    38    1
    27    15    39    1
    28    16    17    1
    29    16    18    1
    30    16    40    1
    31    18    19   ar
    32    18    23   ar
    33    19    20   ar
    34    19    41    1
    35    20    21   ar
    36    20    42    1
    37    21    22   ar
    38    21    24    1
    39    22    23   ar
    40    22    43    1
    41    23    44    1
    42    24    45    1
    43    26    46    1
    44    27    47    1
    45    28    48    1
    46    29    49    1
    47    30    50    1
    48     1    31    1
    49     1    27    1
    50     2    32    1
    51     2    28    1
    52     4    34    1
    53     4    30    1
