@<TRIPOS>MOLECULE
*****
 50 53 0 0 0
SMALL
GASTEIGER

@<TRIPOS>ATOM
     1 C         -0.370556   -1.399297   1.635684 C.3        1 UNL1     0.1889
     2 C         -0.485746   -0.972545   0.147546 C.3        1 UNL1     0.1342
     3 C         -1.923377   -0.901272   -0.389671 C.3        1 UNL1     0.1174
     4 C         -2.836976   -1.969678   0.216103 C.3        1 UNL1     0.1456
     5 C         -2.693213   -2.071006   1.745622 C.3        1 UNL1     0.2326
     6 O         -1.335375   -2.337084   2.089638 O.3        1 UNL1     -0.3076
     7 O         -3.2446   -0.943036   2.449168 O.3        1 UNL1     -0.4605
     8 C         -3.775578   -1.208435   3.698629 C.ar        1 UNL1     0.1310
     9 C         -4.617061   -2.281815   4.010177 C.ar        1 UNL1     0.0226
     10 C         -5.09056   -2.475697   5.313293 C.ar        1 UNL1     0.1343
     11 C         -4.714459   -1.613613   6.342468 C.ar        1 UNL1     0.1007
     12 C         -3.907739   -0.514658   6.035411 C.ar        1 UNL1     0.1389
     13 C         -3.433913   -0.318427   4.724529 C.ar        1 UNL1     0.0229
     14 C         -5.117239   -1.819418   7.752988 C.2        1 UNL1     0.1740
     15 C         -4.443594   -0.930616   8.756872 C.3        1 UNL1     0.0520
     16 C         -4.339461   0.469358   8.167646 C.3        1 UNL1     0.1322
     17 O         -3.565372   0.456084   6.947942 O.3        1 UNL1     -0.4828
     18 C         -5.683562   1.193315   8.058091 C.ar        1 UNL1     -0.0067
     19 C         -5.780396   2.358415   7.269815 C.ar        1 UNL1     -0.0516
     20 C         -6.98245   3.071166   7.186052 C.ar        1 UNL1     -0.0198
     21 C         -8.090289   2.634234   7.890048 C.ar        1 UNL1     0.1169
     22 C         -8.035373   1.471855   8.648136 C.ar        1 UNL1     -0.0198
     23 C         -6.838586   0.74869   8.717351 C.ar        1 UNL1     -0.0516
     24 O         -9.232976   3.375136   7.814348 O.3        1 UNL1     -0.5068
     25 O         -5.8881   -2.704943   8.113684 O.2        1 UNL1     -0.2917
     26 O         -5.908897   -3.541304   5.550757 O.3        1 UNL1     -0.5058
     27 O         -0.242976   -0.304878   2.529416 O.3        1 UNL1     -0.3648
     28 O         0.2256   -1.93052   -0.658045 O.3        1 UNL1     -0.3841
     29 O         -2.450708   0.419887   -0.253314 O.3        1 UNL1     -0.3863
     30 O         -2.517079   -3.252032   -0.366067 O.3        1 UNL1     -0.3829
     31 H         0.577447   -1.93944   1.73374 H        1 UNL1     0.0937
     32 H         0.0   0.0   0.0 H        1 UNL1     0.0671
     33 H         -1.88685   -1.090617   -1.471583 H        1 UNL1     0.0649
     34 H         -3.881483   -1.755005   -0.035538 H        1 UNL1     0.0683
     35 H         -3.269891   -2.967193   2.006717 H        1 UNL1     0.1085
     36 H         -4.900477   -3.018655   3.266629 H        1 UNL1     0.0691
     37 H         -2.808137   0.545515   4.511217 H        1 UNL1     0.0691
     38 H         -3.451702   -1.349583   8.957232 H        1 UNL1     0.0385
     39 H         -5.016097   -0.945333   9.690575 H        1 UNL1     0.0385
     40 H         -3.741542   1.070735   8.865757 H        1 UNL1     0.0789
     41 H         -4.922573   2.727089   6.714954 H        1 UNL1     0.0623
     42 H         -7.041168   3.974755   6.584312 H        1 UNL1     0.0654
     43 H         -8.90116   1.112427   9.191398 H        1 UNL1     0.0654
     44 H         -6.834517   -0.160655   9.310578 H        1 UNL1     0.0623
     45 H         -9.066417   4.238663   8.225804 H        1 UNL1     0.2921
     46 H         -5.536506   -4.082373   6.264886 H        1 UNL1     0.2922
     47 H         0.501324   0.255358   2.268621 H        1 UNL1     0.2126
     48 H         1.177082   -1.776309   -0.501096 H        1 UNL1     0.2101
     49 H         -2.001618   1.019743   -0.869986 H        1 UNL1     0.2100
     50 H         -2.772357   -3.226052   -1.311515 H        1 UNL1     0.2102
@<TRIPOS>BOND
     1     1     2    1
     2     1     6    1
     3     2     3    1
     4     3     4    1
     5     3    29    1
     6     3    33    1
     7     4     5    1
     8     5     6    1
     9     5     7    1
    10     5    35    1
    11     7     8    1
    12     8     9   ar
    13     8    13   ar
    14     9    10   ar
    15     9    36    1
    16    10    11   ar
    17    10    26    1
    18    11    12   ar
    19    11    14    1
    20    12    13   ar
    21    12    17    1
    22    13    37    1
    23    14    15    1
    24    14    25    2
    25    15    16    1
    26    15    38    1
    27    15    39    1
    28    16    17    1
    29    16    18    1
    30    16    40    1
    31    18    19   ar
    32    18    23   ar
    33    19    20   ar
    34    19    41    1
    35    20    21   ar
    36    20    42    1
    37    21    22   ar
    38    21    24    1
    39    22    23   ar
    40    22    43    1
    41    23    44    1
    42    24    45    1
    43    26    46    1
    44    27    47    1
    45    28    48    1
    46    29    49    1
    47    30    50    1
    48     1    31    1
    49     1    27    1
    50     2    32    1
    51     2    28    1
    52     4    34    1
    53     4    30    1
