@<TRIPOS>MOLECULE
*****
 50 53 0 0 0
SMALL
GASTEIGER

@<TRIPOS>ATOM
     1 C         -1.201673   -0.909187   -1.581191 C.3        1 UNL1     0.1889
     2 C         0.082189   -0.830563   -0.71202 C.3        1 UNL1     0.1342
     3 C         1.387496   -0.680609   -1.508357 C.3        1 UNL1     0.1174
     4 C         1.360065   -1.434442   -2.84031 C.3        1 UNL1     0.1456
     5 C         0.058873   -1.194608   -3.627548 C.3        1 UNL1     0.2326
     6 O         -1.065357   -1.565585   -2.832972 O.3        1 UNL1     -0.3076
     7 O         -0.045833   0.134036   -4.170744 O.3        1 UNL1     -0.4605
     8 C         0.922555   0.490352   -5.092042 C.ar        1 UNL1     0.1310
     9 C         0.698974   0.724951   -6.453025 C.ar        1 UNL1     0.0226
     10 C         1.745431   1.099054   -7.304422 C.ar        1 UNL1     0.1343
     11 C         3.037741   1.270966   -6.810233 C.ar        1 UNL1     0.1007
     12 C         3.281282   0.999738   -5.461194 C.ar        1 UNL1     0.1389
     13 C         2.229413   0.621027   -4.605869 C.ar        1 UNL1     0.0229
     14 C         4.163546   1.745985   -7.647534 C.2        1 UNL1     0.1740
     15 C         5.423798   2.087277   -6.908051 C.3        1 UNL1     0.0520
     16 C         5.64142   1.04468   -5.820122 C.3        1 UNL1     0.1322
     17 O         4.533605   1.032127   -4.892945 O.3        1 UNL1     -0.4828
     18 C         6.034701   -0.333542   -6.357298 C.ar        1 UNL1     -0.0067
     19 C         5.079799   -1.104563   -7.05149 C.ar        1 UNL1     -0.0516
     20 C         5.392226   -2.388309   -7.514469 C.ar        1 UNL1     -0.0198
     21 C         6.650866   -2.91404   -7.283686 C.ar        1 UNL1     0.1169
     22 C         7.623096   -2.166039   -6.632455 C.ar        1 UNL1     -0.0198
     23 C         7.316737   -0.875107   -6.185581 C.ar        1 UNL1     -0.0516
     24 O         6.906721   -4.182099   -7.71608 O.3        1 UNL1     -0.5068
     25 O         4.073562   1.934108   -8.857905 O.2        1 UNL1     -0.2917
     26 O         1.460979   1.311874   -8.62176 O.3        1 UNL1     -0.5058
     27 O         -1.872852   0.333873   -1.711984 O.3        1 UNL1     -0.3648
     28 O         0.186825   -2.042692   0.05772 O.3        1 UNL1     -0.3841
     29 O         1.733798   0.69757   -1.659454 O.3        1 UNL1     -0.3863
     30 O         1.494756   -2.849761   -2.586498 O.3        1 UNL1     -0.3829
     31 H         -1.91028   -1.542183   -1.035967 H        1 UNL1     0.0937
     32 H         0.0   0.0   0.0 H        1 UNL1     0.0671
     33 H         2.197558   -1.121142   -0.910486 H        1 UNL1     0.0649
     34 H         2.215652   -1.136423   -3.456392 H        1 UNL1     0.0683
     35 H         0.114747   -1.912076   -4.455798 H        1 UNL1     0.1085
     36 H         -0.292951   0.662584   -6.88698 H        1 UNL1     0.0691
     37 H         2.445448   0.41449   -3.559846 H        1 UNL1     0.0691
     38 H         5.295111   3.086177   -6.477744 H        1 UNL1     0.0385
     39 H         6.257275   2.125339   -7.617731 H        1 UNL1     0.0385
     40 H         6.498505   1.377803   -5.219327 H        1 UNL1     0.0789
     41 H         4.081936   -0.718058   -7.237318 H        1 UNL1     0.0623
     42 H         4.643501   -2.977634   -8.038033 H        1 UNL1     0.0654
     43 H         8.61662   -2.562237   -6.459691 H        1 UNL1     0.0654
     44 H         8.103731   -0.314946   -5.689894 H        1 UNL1     0.0623
     45 H         6.095624   -4.540925   -8.111154 H        1 UNL1     0.2921
     46 H         0.553884   1.02207   -8.807784 H        1 UNL1     0.2922
     47 H         -1.45298   1.001636   -1.151929 H        1 UNL1     0.2126
     48 H         -0.589976   -2.06639   0.649118 H        1 UNL1     0.2101
     49 H         1.271532   1.229099   -0.991935 H        1 UNL1     0.2100
     50 H         1.062732   -3.330548   -3.322644 H        1 UNL1     0.2102
@<TRIPOS>BOND
     1     1     2    1
     2     1     6    1
     3     2     3    1
     4     3     4    1
     5     3    29    1
     6     3    33    1
     7     4     5    1
     8     5     6    1
     9     5     7    1
    10     5    35    1
    11     7     8    1
    12     8     9   ar
    13     8    13   ar
    14     9    10   ar
    15     9    36    1
    16    10    11   ar
    17    10    26    1
    18    11    12   ar
    19    11    14    1
    20    12    13   ar
    21    12    17    1
    22    13    37    1
    23    14    15    1
    24    14    25    2
    25    15    16    1
    26    15    38    1
    27    15    39    1
    28    16    17    1
    29    16    18    1
    30    16    40    1
    31    18    19   ar
    32    18    23   ar
    33    19    20   ar
    34    19    41    1
    35    20    21   ar
    36    20    42    1
    37    21    22   ar
    38    21    24    1
    39    22    23   ar
    40    22    43    1
    41    23    44    1
    42    24    45    1
    43    26    46    1
    44    27    47    1
    45    28    48    1
    46    29    49    1
    47    30    50    1
    48     1    31    1
    49     1    27    1
    50     2    32    1
    51     2    28    1
    52     4    34    1
    53     4    30    1
