@<TRIPOS>MOLECULE
*****
 50 53 0 0 0
SMALL
GASTEIGER

@<TRIPOS>ATOM
     1 C         -0.334934   -1.330163   1.699791 C.3        1 UNL1     0.1889
     2 C         -0.464135   -0.974914   0.19412 C.3        1 UNL1     0.1342
     3 C         -1.904702   -0.959277   -0.339723 C.3        1 UNL1     0.1174
     4 C         -2.793034   -2.018014   0.31835 C.3        1 UNL1     0.1456
     5 C         -2.642165   -2.045742   1.850287 C.3        1 UNL1     0.2326
     6 O         -1.277787   -2.266535   2.200421 O.3        1 UNL1     -0.3076
     7 O         -3.215519   -0.898671   2.503597 O.3        1 UNL1     -0.4605
     8 C         -3.726403   -1.11513   3.770747 C.ar        1 UNL1     0.1310
     9 C         -4.544802   -2.187277   4.142264 C.ar        1 UNL1     0.0226
     10 C         -4.998837   -2.328837   5.45897 C.ar        1 UNL1     0.1343
     11 C         -4.625591   -1.413765   6.442419 C.ar        1 UNL1     0.1007
     12 C         -3.842347   -0.316464   6.074664 C.ar        1 UNL1     0.1389
     13 C         -3.388122   -0.172911   4.750088 C.ar        1 UNL1     0.0229
     14 C         -5.0074   -1.561053   7.866035 C.2        1 UNL1     0.1740
     15 C         -4.337463   -0.615346   8.819121 C.3        1 UNL1     0.0520
     16 C         -4.26544   0.757481   8.164816 C.3        1 UNL1     0.1322
     17 O         -3.506183   0.701162   6.937043 O.3        1 UNL1     -0.4828
     18 C         -5.623439   1.452374   8.039575 C.ar        1 UNL1     -0.0067
     19 C         -5.999621   2.020105   6.804916 C.ar        1 UNL1     -0.0516
     20 C         -7.213642   2.703929   6.668899 C.ar        1 UNL1     -0.0198
     21 C         -8.054967   2.832968   7.759472 C.ar        1 UNL1     0.1169
     22 C         -7.72756   2.255975   8.979604 C.ar        1 UNL1     -0.0198
     23 C         -6.522098   1.556228   9.111032 C.ar        1 UNL1     -0.0516
     24 O         -9.211343   3.538266   7.599005 O.3        1 UNL1     -0.5068
     25 O         -5.757933   -2.442089   8.277083 O.2        1 UNL1     -0.2917
     26 O         -5.795136   -3.396248   5.755829 O.3        1 UNL1     -0.5058
     27 O         -0.228143   -0.193291   2.541756 O.3        1 UNL1     -0.3648
     28 O         0.265136   -1.953477   -0.569611 O.3        1 UNL1     -0.3841
     29 O         -2.460017   0.355148   -0.261975 O.3        1 UNL1     -0.3863
     30 O         -2.447385   -3.318648   -0.205643 O.3        1 UNL1     -0.3829
     31 H         0.624833   -1.844773   1.818549 H        1 UNL1     0.0937
     32 H         0.0   0.0   0.0 H        1 UNL1     0.0671
     33 H         -1.867593   -1.197384   -1.411939 H        1 UNL1     0.0649
     34 H         -3.842744   -1.837592   0.061529 H        1 UNL1     0.0683
     35 H         -3.198493   -2.941121   2.154712 H        1 UNL1     0.1085
     36 H         -4.824125   -2.962463   3.437149 H        1 UNL1     0.0691
     37 H         -2.780457   0.690884   4.489137 H        1 UNL1     0.0691
     38 H         -3.335906   -1.007483   9.025616 H        1 UNL1     0.0385
     39 H         -4.898174   -0.596737   9.759884 H        1 UNL1     0.0385
     40 H         -3.669833   1.400677   8.826684 H        1 UNL1     0.0789
     41 H         -5.352527   1.940455   5.936252 H        1 UNL1     0.0623
     42 H         -7.486999   3.147573   5.714715 H        1 UNL1     0.0654
     43 H         -8.386033   2.338062   9.8361 H        1 UNL1     0.0654
     44 H         -6.303197   1.109148   10.07594 H        1 UNL1     0.0623
     45 H         -8.983524   4.446383   7.341832 H        1 UNL1     0.2921
     46 H         -5.392574   -3.910538   6.473367 H        1 UNL1     0.2922
     47 H         0.51587   0.359615   2.264989 H        1 UNL1     0.2126
     48 H         1.198034   -1.889575   -0.28792 H        1 UNL1     0.2101
     49 H         -2.020024   0.937645   -0.901426 H        1 UNL1     0.2100
     50 H         -2.680231   -3.331985   -1.157124 H        1 UNL1     0.2102
@<TRIPOS>BOND
     1     1     2    1
     2     1     6    1
     3     2     3    1
     4     3     4    1
     5     3    29    1
     6     3    33    1
     7     4     5    1
     8     5     6    1
     9     5     7    1
    10     5    35    1
    11     7     8    1
    12     8     9   ar
    13     8    13   ar
    14     9    10   ar
    15     9    36    1
    16    10    11   ar
    17    10    26    1
    18    11    12   ar
    19    11    14    1
    20    12    13   ar
    21    12    17    1
    22    13    37    1
    23    14    15    1
    24    14    25    2
    25    15    16    1
    26    15    38    1
    27    15    39    1
    28    16    17    1
    29    16    18    1
    30    16    40    1
    31    18    19   ar
    32    18    23   ar
    33    19    20   ar
    34    19    41    1
    35    20    21   ar
    36    20    42    1
    37    21    22   ar
    38    21    24    1
    39    22    23   ar
    40    22    43    1
    41    23    44    1
    42    24    45    1
    43    26    46    1
    44    27    47    1
    45    28    48    1
    46    29    49    1
    47    30    50    1
    48     1    31    1
    49     1    27    1
    50     2    32    1
    51     2    28    1
    52     4    34    1
    53     4    30    1
