@<TRIPOS>MOLECULE
*****
 50 53 0 0 0
SMALL
GASTEIGER

@<TRIPOS>ATOM
     1 C         -0.340896   -1.356002   1.67805 C.3        1 UNL1     0.1889
     2 C         -0.465754   -0.977262   0.177748 C.3        1 UNL1     0.1342
     3 C         -1.904901   -0.951633   -0.359526 C.3        1 UNL1     0.1174
     4 C         -2.796159   -2.019411   0.279713 C.3        1 UNL1     0.1456
     5 C         -2.649328   -2.071104   1.811422 C.3        1 UNL1     0.2326
     6 O         -1.286123   -2.29892   2.161626 O.3        1 UNL1     -0.3076
     7 O         -3.223078   -0.933639   2.480978 O.3        1 UNL1     -0.4605
     8 C         -3.747699   -1.171544   3.738636 C.ar        1 UNL1     0.1310
     9 C         -4.807465   -2.039255   4.023723 C.ar        1 UNL1     0.0226
     10 C         -5.256892   -2.225982   5.336373 C.ar        1 UNL1     0.1343
     11 C         -4.641228   -1.566955   6.399614 C.ar        1 UNL1     0.1007
     12 C         -3.608863   -0.666684   6.122998 C.ar        1 UNL1     0.1389
     13 C         -3.158891   -0.4771   4.802765 C.ar        1 UNL1     0.0229
     14 C         -5.020279   -1.790963   7.813932 C.2        1 UNL1     0.1740
     15 C         -4.110707   -1.173923   8.835445 C.3        1 UNL1     0.0520
     16 C         -3.699919   0.206999   8.343243 C.3        1 UNL1     0.1322
     17 O         -3.004937   0.115368   7.080043 O.3        1 UNL1     -0.4828
     18 C         -4.835004   1.23345   8.369778 C.ar        1 UNL1     -0.0067
     19 C         -4.548169   2.589957   8.113211 C.ar        1 UNL1     -0.0516
     20 C         -5.554397   3.561298   8.176176 C.ar        1 UNL1     -0.0198
     21 C         -6.847053   3.190802   8.501137 C.ar        1 UNL1     0.1169
     22 C         -7.167231   1.858267   8.72625 C.ar        1 UNL1     -0.0198
     23 C         -6.164873   0.884218   8.645243 C.ar        1 UNL1     -0.0516
     24 O         -7.792861   4.169542   8.590112 O.3        1 UNL1     -0.5068
     25 O         -5.964441   -2.497566   8.157088 O.2        1 UNL1     -0.2917
     26 O         -6.295545   -3.085338   5.546834 O.3        1 UNL1     -0.5058
     27 O         -0.235009   -0.232469   2.537846 O.3        1 UNL1     -0.3648
     28 O         0.264394   -1.944708   -0.599194 O.3        1 UNL1     -0.3841
     29 O         -2.458917   0.362081   -0.262815 O.3        1 UNL1     -0.3863
     30 O         -2.450626   -3.312159   -0.263518 O.3        1 UNL1     -0.3829
     31 H         0.617969   -1.873528   1.791293 H        1 UNL1     0.0937
     32 H         0.0   0.0   0.0 H        1 UNL1     0.0671
     33 H         -1.865261   -1.173105   -1.435212 H        1 UNL1     0.0649
     34 H         -3.844987   -1.833782   0.023001 H        1 UNL1     0.0683
     35 H         -3.207472   -2.970444   2.100457 H        1 UNL1     0.1085
     36 H         -5.290907   -2.623021   3.248079 H        1 UNL1     0.0691
     37 H         -2.354258   0.23025   4.613781 H        1 UNL1     0.0691
     38 H         -3.240296   -1.829906   8.943136 H        1 UNL1     0.0385
     39 H         -4.629213   -1.132589   9.799407 H        1 UNL1     0.0385
     40 H         -2.945824   0.589465   9.044371 H        1 UNL1     0.0789
     41 H         -3.539635   2.907605   7.864998 H        1 UNL1     0.0623
     42 H         -5.318254   4.605717   7.987929 H        1 UNL1     0.0654
     43 H         -8.179264   1.555139   8.966692 H        1 UNL1     0.0654
     44 H         -6.452727   -0.148541   8.816692 H        1 UNL1     0.0623
     45 H         -7.342765   5.020238   8.718357 H        1 UNL1     0.2921
     46 H         -6.143462   -3.58211   6.366285 H        1 UNL1     0.2922
     47 H         -0.305935   -0.510094   3.461834 H        1 UNL1     0.2126
     48 H         0.980024   -1.457711   -1.051343 H        1 UNL1     0.2101
     49 H         -3.00962   0.430209   0.53335 H        1 UNL1     0.2100
     50 H         -1.500199   -3.295404   -0.500414 H        1 UNL1     0.2102
@<TRIPOS>BOND
     1     1     2    1
     2     1     6    1
     3     2     3    1
     4     3     4    1
     5     3    29    1
     6     3    33    1
     7     4     5    1
     8     5     6    1
     9     5     7    1
    10     5    35    1
    11     7     8    1
    12     8     9   ar
    13     8    13   ar
    14     9    10   ar
    15     9    36    1
    16    10    11   ar
    17    10    26    1
    18    11    12   ar
    19    11    14    1
    20    12    13   ar
    21    12    17    1
    22    13    37    1
    23    14    15    1
    24    14    25    2
    25    15    16    1
    26    15    38    1
    27    15    39    1
    28    16    17    1
    29    16    18    1
    30    16    40    1
    31    18    19   ar
    32    18    23   ar
    33    19    20   ar
    34    19    41    1
    35    20    21   ar
    36    20    42    1
    37    21    22   ar
    38    21    24    1
    39    22    23   ar
    40    22    43    1
    41    23    44    1
    42    24    45    1
    43    26    46    1
    44    27    47    1
    45    28    48    1
    46    29    49    1
    47    30    50    1
    48     1    31    1
    49     1    27    1
    50     2    32    1
    51     2    28    1
    52     4    34    1
    53     4    30    1
