@<TRIPOS>MOLECULE
*****
 50 53 0 0 0
SMALL
GASTEIGER

@<TRIPOS>ATOM
     1 C         -0.388215   -1.353591   1.669696 C.3        1 UNL1     0.1889
     2 C         -0.491604   -0.965905   0.170046 C.3        1 UNL1     0.1342
     3 C         -1.925347   -0.901886   -0.378359 C.3        1 UNL1     0.1174
     4 C         -2.848242   -1.949372   0.249456 C.3        1 UNL1     0.1456
     5 C         -2.714903   -2.010795   1.78204 C.3        1 UNL1     0.2326
     6 O         -1.360684   -2.274283   2.141949 O.3        1 UNL1     -0.3076
     7 O         -3.265122   -0.86188   2.451796 O.3        1 UNL1     -0.4605
     8 C         -3.795319   -1.089324   3.709051 C.ar        1 UNL1     0.1310
     9 C         -4.645529   -2.1465   4.050846 C.ar        1 UNL1     0.0226
     10 C         -5.117479   -2.301547   5.35971 C.ar        1 UNL1     0.1343
     11 C         -4.731164   -1.415904   6.364816 C.ar        1 UNL1     0.1007
     12 C         -3.915477   -0.332734   6.026911 C.ar        1 UNL1     0.1389
     13 C         -3.443199   -0.175546   4.71022 C.ar        1 UNL1     0.0229
     14 C         -5.132236   -1.580658   7.781203 C.2        1 UNL1     0.1740
     15 C         -4.448215   -0.67164   8.759646 C.3        1 UNL1     0.0520
     16 C         -4.333115   0.711246   8.133279 C.3        1 UNL1     0.1322
     17 O         -3.56222   0.658738   6.912609 O.3        1 UNL1     -0.4828
     18 C         -5.670998   1.444048   8.007605 C.ar        1 UNL1     -0.0067
     19 C         -6.018665   2.045363   6.78051 C.ar        1 UNL1     -0.0516
     20 C         -7.2128   2.763509   6.645345 C.ar        1 UNL1     -0.0198
     21 C         -8.062325   2.893528   7.729425 C.ar        1 UNL1     0.1169
     22 C         -7.763497   2.284524   8.941306 C.ar        1 UNL1     -0.0198
     23 C         -6.578284   1.550779   9.071482 C.ar        1 UNL1     -0.0516
     24 O         -9.198009   3.632089   7.570839 O.3        1 UNL1     -0.5068
     25 O         -5.910035   -2.449383   8.16699 O.2        1 UNL1     -0.2917
     26 O         -5.944659   -3.353123   5.62719 O.3        1 UNL1     -0.5058
     27 O         -0.260892   -0.236486   2.534944 O.3        1 UNL1     -0.3648
     28 O         0.22009   -1.948375   -0.605164 O.3        1 UNL1     -0.3841
     29 O         -2.446861   0.424985   -0.280539 O.3        1 UNL1     -0.3863
     30 O         -2.531072   -3.248265   -0.296409 O.3        1 UNL1     -0.3829
     31 H         0.556389   -1.895567   1.788291 H        1 UNL1     0.0937
     32 H         0.0   0.0   0.0 H        1 UNL1     0.0671
     33 H         -1.882771   -1.120039   -1.45461 H        1 UNL1     0.0649
     34 H         -3.889998   -1.736351   -0.014681 H        1 UNL1     0.0683
     35 H         -3.297785   -2.896914   2.062969 H        1 UNL1     0.1085
     36 H         -4.937337   -2.900212   3.327737 H        1 UNL1     0.0691
     37 H         -2.810303   0.676806   4.472666 H        1 UNL1     0.0691
     38 H         -3.45959   -1.094014   8.968802 H        1 UNL1     0.0385
     39 H         -5.018495   -0.656492   9.694703 H        1 UNL1     0.0385
     40 H         -3.728134   1.32553   8.813848 H        1 UNL1     0.0789
     41 H         -5.364425   1.965529   5.917233 H        1 UNL1     0.0623
     42 H         -7.464   3.232647   5.697284 H        1 UNL1     0.0654
     43 H         -8.428915   2.367331   9.792348 H        1 UNL1     0.0654
     44 H         -6.381726   1.079437   10.029629 H        1 UNL1     0.0623
     45 H         -8.943686   4.538695   7.333979 H        1 UNL1     0.2921
     46 H         -5.56357   -3.891688   6.338619 H        1 UNL1     0.2922
     47 H         0.500327   0.301851   2.276879 H        1 UNL1     0.2126
     48 H         1.151207   -1.914601   -0.312568 H        1 UNL1     0.2101
     49 H         -1.984801   1.007962   -0.903782 H        1 UNL1     0.2100
     50 H         -2.753774   -3.236985   -1.250343 H        1 UNL1     0.2102
@<TRIPOS>BOND
     1     1     2    1
     2     1     6    1
     3     2     3    1
     4     3     4    1
     5     3    29    1
     6     3    33    1
     7     4     5    1
     8     5     6    1
     9     5     7    1
    10     5    35    1
    11     7     8    1
    12     8     9   ar
    13     8    13   ar
    14     9    10   ar
    15     9    36    1
    16    10    11   ar
    17    10    26    1
    18    11    12   ar
    19    11    14    1
    20    12    13   ar
    21    12    17    1
    22    13    37    1
    23    14    15    1
    24    14    25    2
    25    15    16    1
    26    15    38    1
    27    15    39    1
    28    16    17    1
    29    16    18    1
    30    16    40    1
    31    18    19   ar
    32    18    23   ar
    33    19    20   ar
    34    19    41    1
    35    20    21   ar
    36    20    42    1
    37    21    22   ar
    38    21    24    1
    39    22    23   ar
    40    22    43    1
    41    23    44    1
    42    24    45    1
    43    26    46    1
    44    27    47    1
    45    28    48    1
    46    29    49    1
    47    30    50    1
    48     1    31    1
    49     1    27    1
    50     2    32    1
    51     2    28    1
    52     4    34    1
    53     4    30    1
