@<TRIPOS>MOLECULE
*****
 50 53 0 0 0
SMALL
GASTEIGER

@<TRIPOS>ATOM
     1 C         -0.329456   -1.357304   1.679282 C.3        1 UNL1     0.1889
     2 C         -0.465914   -0.976687   0.180466 C.3        1 UNL1     0.1342
     3 C         -1.909351   -0.948078   -0.345023 C.3        1 UNL1     0.1174
     4 C         -2.797141   -2.015091   0.30029 C.3        1 UNL1     0.1456
     5 C         -2.63791   -2.068733   1.830693 C.3        1 UNL1     0.2326
     6 O         -1.272276   -2.299195   2.169514 O.3        1 UNL1     -0.3076
     7 O         -3.204287   -0.931067   2.506158 O.3        1 UNL1     -0.4605
     8 C         -3.71903   -1.169504   3.76779 C.ar        1 UNL1     0.1310
     9 C         -4.545719   -2.24308   4.116099 C.ar        1 UNL1     0.0226
     10 C         -5.003172   -2.408046   5.428892 C.ar        1 UNL1     0.1343
     11 C         -4.625233   -1.515787   6.431328 C.ar        1 UNL1     0.1007
     12 C         -3.833525   -0.416888   6.087231 C.ar        1 UNL1     0.1389
     13 C         -3.375853   -0.249771   4.76661 C.ar        1 UNL1     0.0229
     14 C         -5.0107   -1.689163   7.851015 C.2        1 UNL1     0.1740
     15 C         -4.335804   -0.767784   8.824218 C.3        1 UNL1     0.0520
     16 C         -4.252809   0.617473   8.198012 C.3        1 UNL1     0.1322
     17 O         -3.491715   0.58062   6.970638 O.3        1 UNL1     -0.4828
     18 C         -5.605596   1.324457   8.084587 C.ar        1 UNL1     -0.0067
     19 C         -5.969081   1.932683   6.865508 C.ar        1 UNL1     -0.0516
     20 C         -7.177882   2.628033   6.742019 C.ar        1 UNL1     -0.0198
     21 C         -8.026546   2.728368   7.82992 C.ar        1 UNL1     0.1169
     22 C         -7.711782   2.111643   9.033835 C.ar        1 UNL1     -0.0198
     23 C         -6.511601   1.400575   9.152181 C.ar        1 UNL1     -0.0516
     24 O         -9.177393   3.44558   7.683082 O.3        1 UNL1     -0.5068
     25 O         -5.768239   -2.572958   8.242838 O.2        1 UNL1     -0.2917
     26 O         -5.807593   -3.475531   5.702692 O.3        1 UNL1     -0.5058
     27 O         -0.214691   -0.234907   2.539421 O.3        1 UNL1     -0.3648
     28 O         0.256262   -1.944474   -0.60347 O.3        1 UNL1     -0.3841
     29 O         -2.460372   0.366443   -0.24235 O.3        1 UNL1     -0.3863
     30 O         -2.458202   -3.307803   -0.247163 O.3        1 UNL1     -0.3829
     31 H         0.629438   -1.876543   1.78413 H        1 UNL1     0.0937
     32 H         0.0   0.0   0.0 H        1 UNL1     0.0671
     33 H         -1.878853   -1.168417   -1.421239 H        1 UNL1     0.0649
     34 H         -3.847718   -1.82744   0.052347 H        1 UNL1     0.0683
     35 H         -3.195174   -2.96747   2.123281 H        1 UNL1     0.1085
     36 H         -4.829255   -3.001797   3.394935 H        1 UNL1     0.0691
     37 H         -2.761578   0.614767   4.524261 H        1 UNL1     0.0691
     38 H         -3.337445   -1.171178   9.024416 H        1 UNL1     0.0385
     39 H         -4.898099   -0.764235   9.764213 H        1 UNL1     0.0385
     40 H         -3.653858   1.242846   8.873797 H        1 UNL1     0.0789
     41 H         -5.316   1.87603   5.999525 H        1 UNL1     0.0623
     42 H         -7.441398   3.102861   5.800154 H        1 UNL1     0.0654
     43 H         -8.376135   2.171183   9.88765 H        1 UNL1     0.0654
     44 H         -6.30264   0.922322   10.104259 H        1 UNL1     0.0623
     45 H         -8.941728   4.366698   7.486308 H        1 UNL1     0.2921
     46 H         -5.410708   -4.006362   6.411291 H        1 UNL1     0.2922
     47 H         0.516522   0.33122   2.255365 H        1 UNL1     0.2126
     48 H         1.197206   -1.858362   -0.356609 H        1 UNL1     0.2101
     49 H         -2.027972   0.956281   -0.880248 H        1 UNL1     0.2100
     50 H         -2.701549   -3.306573   -1.196107 H        1 UNL1     0.2102
@<TRIPOS>BOND
     1     1     2    1
     2     1     6    1
     3     2     3    1
     4     3     4    1
     5     3    29    1
     6     3    33    1
     7     4     5    1
     8     5     6    1
     9     5     7    1
    10     5    35    1
    11     7     8    1
    12     8     9   ar
    13     8    13   ar
    14     9    10   ar
    15     9    36    1
    16    10    11   ar
    17    10    26    1
    18    11    12   ar
    19    11    14    1
    20    12    13   ar
    21    12    17    1
    22    13    37    1
    23    14    15    1
    24    14    25    2
    25    15    16    1
    26    15    38    1
    27    15    39    1
    28    16    17    1
    29    16    18    1
    30    16    40    1
    31    18    19   ar
    32    18    23   ar
    33    19    20   ar
    34    19    41    1
    35    20    21   ar
    36    20    42    1
    37    21    22   ar
    38    21    24    1
    39    22    23   ar
    40    22    43    1
    41    23    44    1
    42    24    45    1
    43    26    46    1
    44    27    47    1
    45    28    48    1
    46    29    49    1
    47    30    50    1
    48     1    31    1
    49     1    27    1
    50     2    32    1
    51     2    28    1
    52     4    34    1
    53     4    30    1
