@<TRIPOS>MOLECULE
*****
 50 53 0 0 0
SMALL
GASTEIGER

@<TRIPOS>ATOM
     1 C         0.04039   -2.171651   0.230441 C.3        1 UNL1     0.1889
     2 C         -0.225373   -0.742576   0.775467 C.3        1 UNL1     0.1342
     3 C         0.554072   -0.387486   2.050944 C.3        1 UNL1     0.1174
     4 C         0.74048   -1.58544   2.985437 C.3        1 UNL1     0.1456
     5 C         1.207778   -2.848679   2.239634 C.3        1 UNL1     0.2326
     6 O         0.280371   -3.174389   1.206824 O.3        1 UNL1     -0.3076
     7 O         2.567607   -2.769893   1.774897 O.3        1 UNL1     -0.4605
     8 C         3.546572   -3.020382   2.719571 C.ar        1 UNL1     0.1310
     9 C         3.319609   -3.246354   4.081454 C.ar        1 UNL1     0.0226
     10 C         4.379179   -3.509053   4.957926 C.ar        1 UNL1     0.1343
     11 C         5.690468   -3.575772   4.48898 C.ar        1 UNL1     0.1007
     12 C         5.93386   -3.311315   3.13857 C.ar        1 UNL1     0.1389
     13 C         4.868566   -3.044585   2.257981 C.ar        1 UNL1     0.0229
     14 C         6.838222   -3.932228   5.354862 C.2        1 UNL1     0.1740
     15 C         8.137024   -4.175415   4.643863 C.3        1 UNL1     0.0520
     16 C         8.281776   -3.139804   3.537284 C.3        1 UNL1     0.1322
     17 O         7.194377   -3.244123   2.5919 O.3        1 UNL1     -0.4828
     18 C         8.54204   -1.721611   4.050815 C.ar        1 UNL1     -0.0067
     19 C         9.558112   -1.50594   5.004385 C.ar        1 UNL1     -0.0516
     20 C         9.790732   -0.229376   5.529966 C.ar        1 UNL1     -0.0198
     21 C         9.011034   0.835962   5.116502 C.ar        1 UNL1     0.1169
     22 C         8.025065   0.661417   4.154089 C.ar        1 UNL1     -0.0198
     23 C         7.804476   -0.611561   3.614715 C.ar        1 UNL1     -0.0516
     24 O         9.241673   2.05722   5.678404 O.3        1 UNL1     -0.5068
     25 O         6.742978   -4.103122   6.567384 O.2        1 UNL1     -0.2917
     26 O         4.090472   -3.719607   6.274703 O.3        1 UNL1     -0.5058
     27 O         1.006161   -2.210096   -0.808114 O.3        1 UNL1     -0.3648
     28 O         -1.626872   -0.625106   1.083216 O.3        1 UNL1     -0.3841
     29 O         1.786575   0.259803   1.728322 O.3        1 UNL1     -0.3863
     30 O         -0.512493   -1.872078   3.64391 O.3        1 UNL1     -0.3829
     31 H         -0.886964   -2.500163   -0.251402 H        1 UNL1     0.0937
     32 H         0.0   0.0   0.0 H        1 UNL1     0.0671
     33 H         -0.031553   0.359515   2.604796 H        1 UNL1     0.0649
     34 H         1.46545   -1.339164   3.769126 H        1 UNL1     0.0683
     35 H         1.137048   -3.64248   2.993793 H        1 UNL1     0.1085
     36 H         2.318252   -3.263339   4.497525 H        1 UNL1     0.0691
     37 H         5.084707   -2.840873   1.211426 H        1 UNL1     0.0691
     38 H         8.104861   -5.190265   4.233288 H        1 UNL1     0.0385
     39 H         8.957443   -4.125184   5.367858 H        1 UNL1     0.0385
     40 H         9.175784   -3.407764   2.95809 H        1 UNL1     0.0789
     41 H         10.177766   -2.327453   5.351944 H        1 UNL1     0.0623
     42 H         10.569347   -0.078115   6.273532 H        1 UNL1     0.0654
     43 H         7.418702   1.491641   3.812092 H        1 UNL1     0.0654
     44 H         7.032997   -0.709509   2.857041 H        1 UNL1     0.0623
     45 H         9.99218   1.977004   6.289159 H        1 UNL1     0.2921
     46 H         3.134182   -3.63305   6.414091 H        1 UNL1     0.2922
     47 H         0.62014   -1.892168   -1.636226 H        1 UNL1     0.2126
     48 H         -1.695637   -0.564963   2.055526 H        1 UNL1     0.2101
     49 H         2.308171   0.397302   2.53506 H        1 UNL1     0.2100
     50 H         -1.058773   -2.40809   3.032371 H        1 UNL1     0.2102
@<TRIPOS>BOND
     1     1     2    1
     2     1     6    1
     3     2     3    1
     4     3     4    1
     5     3    29    1
     6     3    33    1
     7     4     5    1
     8     5     6    1
     9     5     7    1
    10     5    35    1
    11     7     8    1
    12     8     9   ar
    13     8    13   ar
    14     9    10   ar
    15     9    36    1
    16    10    11   ar
    17    10    26    1
    18    11    12   ar
    19    11    14    1
    20    12    13   ar
    21    12    17    1
    22    13    37    1
    23    14    15    1
    24    14    25    2
    25    15    16    1
    26    15    38    1
    27    15    39    1
    28    16    17    1
    29    16    18    1
    30    16    40    1
    31    18    19   ar
    32    18    23   ar
    33    19    20   ar
    34    19    41    1
    35    20    21   ar
    36    20    42    1
    37    21    22   ar
    38    21    24    1
    39    22    23   ar
    40    22    43    1
    41    23    44    1
    42    24    45    1
    43    26    46    1
    44    27    47    1
    45    28    48    1
    46    29    49    1
    47    30    50    1
    48     1    31    1
    49     1    27    1
    50     2    32    1
    51     2    28    1
    52     4    34    1
    53     4    30    1
