@<TRIPOS>MOLECULE
*****
 50 53 0 0 0
SMALL
GASTEIGER

@<TRIPOS>ATOM
     1 C         -0.350357   -1.33851   1.690102 C.3        1 UNL1     0.1889
     2 C         -0.47157   -0.972879   0.186253 C.3        1 UNL1     0.1342
     3 C         -1.910024   -0.943886   -0.352704 C.3        1 UNL1     0.1174
     4 C         -2.808061   -2.000572   0.295419 C.3        1 UNL1     0.1456
     5 C         -2.663014   -2.039013   1.827688 C.3        1 UNL1     0.2326
     6 O         -1.30149   -2.271464   2.181364 O.3        1 UNL1     -0.3076
     7 O         -3.230824   -0.89214   2.486168 O.3        1 UNL1     -0.4605
     8 C         -3.754637   -1.114639   3.746978 C.ar        1 UNL1     0.1310
     9 C         -4.586533   -2.18195   4.10208 C.ar        1 UNL1     0.0226
     10 C         -5.053201   -2.330543   5.413584 C.ar        1 UNL1     0.1343
     11 C         -4.67957   -1.42776   6.408181 C.ar        1 UNL1     0.1007
     12 C         -3.882614   -0.334989   6.056763 C.ar        1 UNL1     0.1389
     13 C         -3.415669   -0.184335   4.737409 C.ar        1 UNL1     0.0229
     14 C         -5.074991   -1.583717   7.827151 C.2        1 UNL1     0.1740
     15 C         -4.404136   -0.652932   8.794178 C.3        1 UNL1     0.0520
     16 C         -4.313216   0.724778   8.152611 C.3        1 UNL1     0.1322
     17 O         -3.544029   0.671757   6.930886 O.3        1 UNL1     -0.4828
     18 C         -5.6633   1.433949   8.021953 C.ar        1 UNL1     -0.0067
     19 C         -6.016978   2.029006   6.793526 C.ar        1 UNL1     -0.0516
     20 C         -7.223045   2.726051   6.653905 C.ar        1 UNL1     -0.0198
     21 C         -8.078694   2.841169   7.734849 C.ar        1 UNL1     0.1169
     22 C         -7.773656   2.237566   8.947884 C.ar        1 UNL1     -0.0198
     23 C         -6.576218   1.524768   9.082485 C.ar        1 UNL1     -0.0516
     24 O         -9.226592   3.559651   7.57202 O.3        1 UNL1     -0.5068
     25 O         -5.837518   -2.460938   8.22404 O.2        1 UNL1     -0.2917
     26 O         -5.862314   -3.392682   5.694263 O.3        1 UNL1     -0.5058
     27 O         -0.238806   -0.207742   2.539635 O.3        1 UNL1     -0.3648
     28 O         0.253722   -1.951634   -0.581012 O.3        1 UNL1     -0.3841
     29 O         -2.456526   0.37384   -0.268645 O.3        1 UNL1     -0.3863
     30 O         -2.469485   -3.300238   -0.235546 O.3        1 UNL1     -0.3829
     31 H         0.605388   -1.860501   1.809079 H        1 UNL1     0.0937
     32 H         0.0   0.0   0.0 H        1 UNL1     0.0671
     33 H         -1.870624   -1.175474   -1.426266 H        1 UNL1     0.0649
     34 H         -3.855549   -1.81126   0.03594 H        1 UNL1     0.0683
     35 H         -3.22663   -2.932417   2.124412 H        1 UNL1     0.1085
     36 H         -4.867285   -2.948199   3.387824 H        1 UNL1     0.0691
     37 H         -2.797454   0.675732   4.48924 H        1 UNL1     0.0691
     38 H         -3.408232   -1.056603   9.005719 H        1 UNL1     0.0385
     39 H         -4.972695   -0.637052   9.730269 H        1 UNL1     0.0385
     40 H         -3.717113   1.356342   8.82515 H        1 UNL1     0.0789
     41 H         -5.358274   1.960643   5.932662 H        1 UNL1     0.0623
     42 H         -7.478971   3.190658   5.704878 H        1 UNL1     0.0654
     43 H         -8.443543   2.308704   9.796472 H        1 UNL1     0.0654
     44 H         -6.374922   1.056996   10.041398 H        1 UNL1     0.0623
     45 H         -8.987251   4.472635   7.344217 H        1 UNL1     0.2921
     46 H         -5.471612   -3.916332   6.411588 H        1 UNL1     0.2922
     47 H         0.504131   0.346755   2.263162 H        1 UNL1     0.2126
     48 H         1.187478   -1.890094   -0.301647 H        1 UNL1     0.2101
     49 H         -2.015895   0.955294   -0.908605 H        1 UNL1     0.2100
     50 H         -2.704161   -3.307848   -1.186641 H        1 UNL1     0.2102
@<TRIPOS>BOND
     1     1     2    1
     2     1     6    1
     3     2     3    1
     4     3     4    1
     5     3    29    1
     6     3    33    1
     7     4     5    1
     8     5     6    1
     9     5     7    1
    10     5    35    1
    11     7     8    1
    12     8     9   ar
    13     8    13   ar
    14     9    10   ar
    15     9    36    1
    16    10    11   ar
    17    10    26    1
    18    11    12   ar
    19    11    14    1
    20    12    13   ar
    21    12    17    1
    22    13    37    1
    23    14    15    1
    24    14    25    2
    25    15    16    1
    26    15    38    1
    27    15    39    1
    28    16    17    1
    29    16    18    1
    30    16    40    1
    31    18    19   ar
    32    18    23   ar
    33    19    20   ar
    34    19    41    1
    35    20    21   ar
    36    20    42    1
    37    21    22   ar
    38    21    24    1
    39    22    23   ar
    40    22    43    1
    41    23    44    1
    42    24    45    1
    43    26    46    1
    44    27    47    1
    45    28    48    1
    46    29    49    1
    47    30    50    1
    48     1    31    1
    49     1    27    1
    50     2    32    1
    51     2    28    1
    52     4    34    1
    53     4    30    1
