@<TRIPOS>MOLECULE
*****
 50 53 0 0 0
SMALL
GASTEIGER

@<TRIPOS>ATOM
     1 C         -0.335015   -1.330098   1.699826 C.3        1 UNL1     0.1889
     2 C         -0.464154   -0.974902   0.194137 C.3        1 UNL1     0.1342
     3 C         -1.904701   -0.959266   -0.339761 C.3        1 UNL1     0.1174
     4 C         -2.79307   -2.017969   0.318316 C.3        1 UNL1     0.1456
     5 C         -2.64226   -2.045643   1.850261 C.3        1 UNL1     0.2326
     6 O         -1.277899   -2.26644   2.200454 O.3        1 UNL1     -0.3076
     7 O         -3.215625   -0.898541   2.503507 O.3        1 UNL1     -0.4605
     8 C         -3.72656   -1.114948   3.770646 C.ar        1 UNL1     0.1310
     9 C         -4.567504   -2.171758   4.135706 C.ar        1 UNL1     0.0226
     10 C         -5.019735   -2.315014   5.452849 C.ar        1 UNL1     0.1343
     11 C         -4.622351   -1.41752   6.443016 C.ar        1 UNL1     0.1007
     12 C         -3.815973   -0.334809   6.082081 C.ar        1 UNL1     0.1389
     13 C         -3.363535   -0.189492   4.757085 C.ar        1 UNL1     0.0229
     14 C         -5.002108   -1.569096   7.86673 C.2        1 UNL1     0.1740
     15 C         -4.307533   -0.647369   8.825652 C.3        1 UNL1     0.0520
     16 C         -4.207049   0.729372   8.183432 C.3        1 UNL1     0.1322
     17 O         -3.4538   0.667142   6.952249 O.3        1 UNL1     -0.4828
     18 C         -5.549517   1.455717   8.069741 C.ar        1 UNL1     -0.0067
     19 C         -5.91739   2.042934   6.84171 C.ar        1 UNL1     -0.0516
     20 C         -7.116207   2.755075   6.716583 C.ar        1 UNL1     -0.0198
     21 C         -7.950373   2.893093   7.811547 C.ar        1 UNL1     0.1169
     22 C         -7.631524   2.297844   9.025158 C.ar        1 UNL1     -0.0198
     23 C         -6.44164   1.570019   9.145588 C.ar        1 UNL1     -0.0516
     24 O         -9.091167   3.625628   7.661938 O.3        1 UNL1     -0.5068
     25 O         -5.770757   -2.436734   8.272772 O.2        1 UNL1     -0.2917
     26 O         -5.838755   -3.366908   5.743211 O.3        1 UNL1     -0.5058
     27 O         -0.228242   -0.193197   2.541754 O.3        1 UNL1     -0.3648
     28 O         0.265134   -1.953501   -0.569531 O.3        1 UNL1     -0.3841
     29 O         -2.460003   0.355168   -0.262082 O.3        1 UNL1     -0.3863
     30 O         -2.447418   -3.318626   -0.205616 O.3        1 UNL1     -0.3829
     31 H         0.624741   -1.844715   1.81864 H        1 UNL1     0.0937
     32 H         0.0   0.0   0.0 H        1 UNL1     0.0671
     33 H         -1.867554   -1.197413   -1.411967 H        1 UNL1     0.0649
     34 H         -3.842769   -1.837543   0.061449 H        1 UNL1     0.0683
     35 H         -3.198611   -2.941005   2.154696 H        1 UNL1     0.1085
     36 H         -4.866812   -2.934042   3.42475 H        1 UNL1     0.0691
     37 H         -2.737551   0.662759   4.501535 H        1 UNL1     0.0691
     38 H         -3.314299   -1.063772   9.024706 H        1 UNL1     0.0385
     39 H         -4.864198   -0.624696   9.768726 H        1 UNL1     0.0385
     40 H         -3.59467   1.35299   8.848723 H        1 UNL1     0.0789
     41 H         -5.275472   1.956644   5.969847 H        1 UNL1     0.0623
     42 H         -7.383037   3.213387   5.767497 H        1 UNL1     0.0654
     43 H         -8.284809   2.386937   9.884921 H        1 UNL1     0.0654
     44 H         -6.229289   1.109399   10.105578 H        1 UNL1     0.0623
     45 H         -8.843917   4.530691   7.412047 H        1 UNL1     0.2921
     46 H         -5.445219   -3.896602   6.454523 H        1 UNL1     0.2922
     47 H         0.515788   0.35969   2.264995 H        1 UNL1     0.2126
     48 H         1.198022   -1.8896   -0.287806 H        1 UNL1     0.2101
     49 H         -2.019978   0.937637   -0.901537 H        1 UNL1     0.2100
     50 H         -2.680227   -3.331995   -1.157106 H        1 UNL1     0.2102
@<TRIPOS>BOND
     1     1     2    1
     2     1     6    1
     3     2     3    1
     4     3     4    1
     5     3    29    1
     6     3    33    1
     7     4     5    1
     8     5     6    1
     9     5     7    1
    10     5    35    1
    11     7     8    1
    12     8     9   ar
    13     8    13   ar
    14     9    10   ar
    15     9    36    1
    16    10    11   ar
    17    10    26    1
    18    11    12   ar
    19    11    14    1
    20    12    13   ar
    21    12    17    1
    22    13    37    1
    23    14    15    1
    24    14    25    2
    25    15    16    1
    26    15    38    1
    27    15    39    1
    28    16    17    1
    29    16    18    1
    30    16    40    1
    31    18    19   ar
    32    18    23   ar
    33    19    20   ar
    34    19    41    1
    35    20    21   ar
    36    20    42    1
    37    21    22   ar
    38    21    24    1
    39    22    23   ar
    40    22    43    1
    41    23    44    1
    42    24    45    1
    43    26    46    1
    44    27    47    1
    45    28    48    1
    46    29    49    1
    47    30    50    1
    48     1    31    1
    49     1    27    1
    50     2    32    1
    51     2    28    1
    52     4    34    1
    53     4    30    1
