@<TRIPOS>MOLECULE
*****
 50 53 0 0 0
SMALL
GASTEIGER

@<TRIPOS>ATOM
     1 C         -0.201979   -1.235781   1.789652 C.3        1 UNL1     0.1889
     2 C         -0.520918   -0.916287   0.304344 C.3        1 UNL1     0.1342
     3 C         -2.017067   -0.771216   -0.013395 C.3        1 UNL1     0.1174
     4 C         -2.893862   -1.713382   0.815261 C.3        1 UNL1     0.1456
     5 C         -2.518318   -1.708585   2.308348 C.3        1 UNL1     0.2326
     6 O         -1.144326   -2.055641   2.465082 O.3        1 UNL1     -0.3076
     7 O         -2.874782   -0.489496   2.985162 O.3        1 UNL1     -0.4605
     8 C         -3.219156   -0.615052   4.319017 C.ar        1 UNL1     0.1310
     9 C         -4.074279   -1.588339   4.84701 C.ar        1 UNL1     0.0226
     10 C         -4.348537   -1.64356   6.218737 C.ar        1 UNL1     0.1343
     11 C         -3.754965   -0.740641   7.099788 C.ar        1 UNL1     0.1007
     12 C         -2.931573   0.261285   6.579255 C.ar        1 UNL1     0.1389
     13 C         -2.658055   0.318229   5.199626 C.ar        1 UNL1     0.0229
     14 C         -3.943448   -0.805494   8.567583 C.2        1 UNL1     0.1740
     15 C         -3.058925   0.097366   9.376293 C.3        1 UNL1     0.0520
     16 C         -2.950926   1.435503   8.658182 C.3        1 UNL1     0.1322
     17 O         -2.382002   1.266196   7.34109 O.3        1 UNL1     -0.4828
     18 C         -4.241175   2.258249   8.690897 C.ar        1 UNL1     -0.0067
     19 C         -4.379066   3.36469   7.82777 C.ar        1 UNL1     -0.0516
     20 C         -5.526121   4.166449   7.865324 C.ar        1 UNL1     -0.0198
     21 C         -6.536862   3.877266   8.764547 C.ar        1 UNL1     0.1169
     22 C         -6.444833   2.774736   9.604069 C.ar        1 UNL1     -0.0198
     23 C         -5.305995   1.961971   9.553898 C.ar        1 UNL1     -0.0516
     24 O         -7.622191   4.702677   8.798583 O.3        1 UNL1     -0.5068
     25 O         -4.70804   -1.594274   9.116865 O.2        1 UNL1     -0.2917
     26 O         -5.192013   -2.616624   6.669602 O.3        1 UNL1     -0.5058
     27 O         0.138169   -0.089958   2.553967 O.3        1 UNL1     -0.3648
     28 O         -0.011458   -1.987071   -0.512098 O.3        1 UNL1     -0.3841
     29 O         -2.426078   0.594541   0.084341 O.3        1 UNL1     -0.3863
     30 O         -2.756774   -3.058043   0.306554 O.3        1 UNL1     -0.3829
     31 H         0.711041   -1.841151   1.790338 H        1 UNL1     0.0937
     32 H         0.0   0.0   0.0 H        1 UNL1     0.0671
     33 H         -2.16413   -1.04511   -1.06747 H        1 UNL1     0.0649
     34 H         -3.948076   -1.435485   0.706604 H        1 UNL1     0.0683
     35 H         -3.105806   -2.533   2.731522 H        1 UNL1     0.1085
     36 H         -4.522655   -2.352992   4.222201 H        1 UNL1     0.0691
     37 H         -2.014612   1.108705   4.819334 H        1 UNL1     0.0691
     38 H         -2.079796   -0.386231   9.459758 H        1 UNL1     0.0385
     39 H         -3.476422   0.200584   10.383675 H        1 UNL1     0.0385
     40 H         -2.209483   2.036012   9.202398 H        1 UNL1     0.0789
     41 H         -3.595832   3.618035   7.119243 H        1 UNL1     0.0623
     42 H         -5.615411   5.023908   7.202903 H        1 UNL1     0.0654
     43 H         -7.237093   2.530367   10.301577 H        1 UNL1     0.0654
     44 H         -5.272281   1.102687   10.216726 H        1 UNL1     0.0623
     45 H         -7.325111   5.589327   9.059948 H        1 UNL1     0.2921
     46 H         -4.750528   -3.13143   7.363488 H        1 UNL1     0.2922
     47 H         0.8682   0.387151   2.135302 H        1 UNL1     0.2126
     48 H         0.962026   -1.953523   -0.441838 H        1 UNL1     0.2101
     49 H         -2.040236   1.107481   -0.643542 H        1 UNL1     0.2100
     50 H         -3.155336   -3.084086   -0.587975 H        1 UNL1     0.2102
@<TRIPOS>BOND
     1     1     2    1
     2     1     6    1
     3     2     3    1
     4     3     4    1
     5     3    29    1
     6     3    33    1
     7     4     5    1
     8     5     6    1
     9     5     7    1
    10     5    35    1
    11     7     8    1
    12     8     9   ar
    13     8    13   ar
    14     9    10   ar
    15     9    36    1
    16    10    11   ar
    17    10    26    1
    18    11    12   ar
    19    11    14    1
    20    12    13   ar
    21    12    17    1
    22    13    37    1
    23    14    15    1
    24    14    25    2
    25    15    16    1
    26    15    38    1
    27    15    39    1
    28    16    17    1
    29    16    18    1
    30    16    40    1
    31    18    19   ar
    32    18    23   ar
    33    19    20   ar
    34    19    41    1
    35    20    21   ar
    36    20    42    1
    37    21    22   ar
    38    21    24    1
    39    22    23   ar
    40    22    43    1
    41    23    44    1
    42    24    45    1
    43    26    46    1
    44    27    47    1
    45    28    48    1
    46    29    49    1
    47    30    50    1
    48     1    31    1
    49     1    27    1
    50     2    32    1
    51     2    28    1
    52     4    34    1
    53     4    30    1
