@<TRIPOS>MOLECULE
*****
 50 53 0 0 0
SMALL
GASTEIGER

@<TRIPOS>ATOM
     1 C         -0.331367   -1.355748   1.680163 C.3        1 UNL1     0.1889
     2 C         -0.466363   -0.976393   0.180894 C.3        1 UNL1     0.1342
     3 C         -1.909317   -0.947819   -0.34592 C.3        1 UNL1     0.1174
     4 C         -2.798002   -2.01401   0.299519 C.3        1 UNL1     0.1456
     5 C         -2.640166   -2.066369   1.83011 C.3        1 UNL1     0.2326
     6 O         -1.274906   -2.296936   2.170363 O.3        1 UNL1     -0.3076
     7 O         -3.206818   -0.92795   2.504076 O.3        1 UNL1     -0.4605
     8 C         -3.722767   -1.16514   3.76545 C.ar        1 UNL1     0.1310
     9 C         -4.550086   -2.238171   4.113946 C.ar        1 UNL1     0.0226
     10 C         -5.00877   -2.401862   5.426469 C.ar        1 UNL1     0.1343
     11 C         -4.631473   -1.508843   6.42847 C.ar        1 UNL1     0.1007
     12 C         -3.839132   -0.410476   6.084132 C.ar        1 UNL1     0.1389
     13 C         -3.380222   -0.24464   4.76378 C.ar        1 UNL1     0.0229
     14 C         -5.01827   -1.680873   7.847958 C.2        1 UNL1     0.1740
     15 C         -4.343981   -0.758845   8.820969 C.3        1 UNL1     0.0520
     16 C         -4.260016   0.625842   8.193635 C.3        1 UNL1     0.1322
     17 O         -3.497826   0.5877   6.96698 O.3        1 UNL1     -0.4828
     18 C         -5.612492   1.333123   8.078376 C.ar        1 UNL1     -0.0067
     19 C         -5.974699   1.940396   6.858442 C.ar        1 UNL1     -0.0516
     20 C         -7.183185   2.635993   6.733259 C.ar        1 UNL1     -0.0198
     21 C         -8.032799   2.737522   7.820307 C.ar        1 UNL1     0.1169
     22 C         -7.719301   2.121751   9.025041 C.ar        1 UNL1     -0.0198
     23 C         -6.519436   1.410435   9.145086 C.ar        1 UNL1     -0.0516
     24 O         -9.183302   3.454942   7.671808 O.3        1 UNL1     -0.5068
     25 O         -5.776421   -2.564105   8.239866 O.2        1 UNL1     -0.2917
     26 O         -5.81375   -3.468874   5.700471 O.3        1 UNL1     -0.5058
     27 O         -0.217048   -0.232637   2.53943 O.3        1 UNL1     -0.3648
     28 O         0.256235   -1.945073   -0.601549 O.3        1 UNL1     -0.3841
     29 O         -2.460045   0.366952   -0.244886 O.3        1 UNL1     -0.3863
     30 O         -2.458949   -3.307297   -0.246506 O.3        1 UNL1     -0.3829
     31 H         0.627279   -1.875176   1.786326 H        1 UNL1     0.0937
     32 H         0.0   0.0   0.0 H        1 UNL1     0.0671
     33 H         -1.877914   -1.169102   -1.421916 H        1 UNL1     0.0649
     34 H         -3.8483   -1.826267   0.050465 H        1 UNL1     0.0683
     35 H         -3.197957   -2.964688   2.122977 H        1 UNL1     0.1085
     36 H         -4.833194   -2.997432   3.393187 H        1 UNL1     0.0691
     37 H         -2.765474   0.619507   4.521233 H        1 UNL1     0.0691
     38 H         -3.345922   -1.162358   9.022417 H        1 UNL1     0.0385
     39 H         -4.907122   -0.754315   9.760453 H        1 UNL1     0.0385
     40 H         -3.66149   1.251627   8.869416 H        1 UNL1     0.0789
     41 H         -5.320854   1.882799   5.993098 H        1 UNL1     0.0623
     42 H         -7.445711   3.110079   5.790745 H        1 UNL1     0.0654
     43 H         -8.384406   2.182227   9.878204 H        1 UNL1     0.0654
     44 H         -6.311474   0.932948   10.097768 H        1 UNL1     0.0623
     45 H         -8.94719   4.37582   7.474446 H        1 UNL1     0.2921
     46 H         -5.41766   -3.999204   6.409889 H        1 UNL1     0.2922
     47 H         0.514587   0.333029   2.255541 H        1 UNL1     0.2126
     48 H         1.196982   -1.859021   -0.353915 H        1 UNL1     0.2101
     49 H         -2.026897   0.956109   -0.882907 H        1 UNL1     0.2100
     50 H         -2.70144   -3.30682   -1.195669 H        1 UNL1     0.2102
@<TRIPOS>BOND
     1     1     2    1
     2     1     6    1
     3     2     3    1
     4     3     4    1
     5     3    29    1
     6     3    33    1
     7     4     5    1
     8     5     6    1
     9     5     7    1
    10     5    35    1
    11     7     8    1
    12     8     9   ar
    13     8    13   ar
    14     9    10   ar
    15     9    36    1
    16    10    11   ar
    17    10    26    1
    18    11    12   ar
    19    11    14    1
    20    12    13   ar
    21    12    17    1
    22    13    37    1
    23    14    15    1
    24    14    25    2
    25    15    16    1
    26    15    38    1
    27    15    39    1
    28    16    17    1
    29    16    18    1
    30    16    40    1
    31    18    19   ar
    32    18    23   ar
    33    19    20   ar
    34    19    41    1
    35    20    21   ar
    36    20    42    1
    37    21    22   ar
    38    21    24    1
    39    22    23   ar
    40    22    43    1
    41    23    44    1
    42    24    45    1
    43    26    46    1
    44    27    47    1
    45    28    48    1
    46    29    49    1
    47    30    50    1
    48     1    31    1
    49     1    27    1
    50     2    32    1
    51     2    28    1
    52     4    34    1
    53     4    30    1
