@<TRIPOS>MOLECULE
*****
 50 53 0 0 0
SMALL
GASTEIGER

@<TRIPOS>ATOM
     1 C         -0.401102   -1.397525   1.629984 C.3        1 UNL1     0.1889
     2 C         -0.500374   -0.965917   0.142099 C.3        1 UNL1     0.1342
     3 C         -1.933257   -0.873186   -0.404449 C.3        1 UNL1     0.1174
     4 C         -2.865829   -1.929925   0.192818 C.3        1 UNL1     0.1456
     5 C         -2.733675   -2.036637   1.723018 C.3        1 UNL1     0.2326
     6 O         -1.382037   -2.322603   2.075395 O.3        1 UNL1     -0.3076
     7 O         -3.273772   -0.902551   2.425488 O.3        1 UNL1     -0.4605
     8 C         -3.816729   -1.16318   3.670798 C.ar        1 UNL1     0.1310
     9 C         -4.683559   -2.219208   3.971981 C.ar        1 UNL1     0.0226
     10 C         -5.167715   -2.409937   5.271641 C.ar        1 UNL1     0.1343
     11 C         -4.777504   -1.562447   6.307661 C.ar        1 UNL1     0.1007
     12 C         -3.944877   -0.480098   6.010952 C.ar        1 UNL1     0.1389
     13 C         -3.460302   -0.286982   4.70354 C.ar        1 UNL1     0.0229
     14 C         -5.191758   -1.7673   7.714993 C.2        1 UNL1     0.1740
     15 C         -4.503357   -0.899622   8.727311 C.3        1 UNL1     0.0520
     16 C         -4.365   0.50104   8.146827 C.3        1 UNL1     0.1322
     17 O         -3.585381   0.47745   6.930806 O.3        1 UNL1     -0.4828
     18 C         -5.692001   1.25556   8.035057 C.ar        1 UNL1     -0.0067
     19 C         -5.710581   2.542402   7.458944 C.ar        1 UNL1     -0.0516
     20 C         -6.898807   3.278968   7.384424 C.ar        1 UNL1     -0.0198
     21 C         -8.071018   2.744003   7.887971 C.ar        1 UNL1     0.1169
     22 C         -8.091138   1.465845   8.430877 C.ar        1 UNL1     -0.0198
     23 C         -6.906694   0.721672   8.488795 C.ar        1 UNL1     -0.0516
     24 O         -9.200998   3.505863   7.832148 O.3        1 UNL1     -0.5068
     25 O         -5.984023   -2.63739   8.066766 O.2        1 UNL1     -0.2917
     26 O         -6.010865   -3.458286   5.4989 O.3        1 UNL1     -0.5058
     27 O         -0.264051   -0.306984   2.527048 O.3        1 UNL1     -0.3648
     28 O         0.202736   -1.932059   -0.660965 O.3        1 UNL1     -0.3841
     29 O         -2.44281   0.454979   -0.268552 O.3        1 UNL1     -0.3863
     30 O         -2.560176   -3.215382   -0.390163 O.3        1 UNL1     -0.3829
     31 H         0.538522   -1.951204   1.733068 H        1 UNL1     0.0937
     32 H         0.0   0.0   0.0 H        1 UNL1     0.0671
     33 H         -1.892214   -1.060647   -1.486527 H        1 UNL1     0.0649
     34 H         -3.90551   -1.699984   -0.065232 H        1 UNL1     0.0683
     35 H         -3.324648   -2.925171   1.978237 H        1 UNL1     0.1085
     36 H         -4.979718   -2.945212   3.222763 H        1 UNL1     0.0691
     37 H         -2.814296   0.563932   4.498322 H        1 UNL1     0.0691
     38 H         -3.522096   -1.341863   8.929979 H        1 UNL1     0.0385
     39 H         -5.080656   -0.906885   9.658146 H        1 UNL1     0.0385
     40 H         -3.757228   1.08483   8.851328 H        1 UNL1     0.0789
     41 H         -4.801964   2.98822   7.064847 H        1 UNL1     0.0623
     42 H         -6.897876   4.275011   6.948639 H        1 UNL1     0.0654
     43 H         -9.00653   1.031299   8.814462 H        1 UNL1     0.0654
     44 H         -6.961149   -0.277622   8.909856 H        1 UNL1     0.0623
     45 H         -9.060172   4.303084   8.368172 H        1 UNL1     0.2921
     46 H         -5.654214   -4.011674   6.211624 H        1 UNL1     0.2922
     47 H         0.489787   0.243267   2.272466 H        1 UNL1     0.2126
     48 H         1.148222   -1.853118   -0.429541 H        1 UNL1     0.2101
     49 H         -1.981701   1.04966   -0.881355 H        1 UNL1     0.2100
     50 H         -2.808773   -3.183723   -1.337216 H        1 UNL1     0.2102
@<TRIPOS>BOND
     1     1     2    1
     2     1     6    1
     3     2     3    1
     4     3     4    1
     5     3    29    1
     6     3    33    1
     7     4     5    1
     8     5     6    1
     9     5     7    1
    10     5    35    1
    11     7     8    1
    12     8     9   ar
    13     8    13   ar
    14     9    10   ar
    15     9    36    1
    16    10    11   ar
    17    10    26    1
    18    11    12   ar
    19    11    14    1
    20    12    13   ar
    21    12    17    1
    22    13    37    1
    23    14    15    1
    24    14    25    2
    25    15    16    1
    26    15    38    1
    27    15    39    1
    28    16    17    1
    29    16    18    1
    30    16    40    1
    31    18    19   ar
    32    18    23   ar
    33    19    20   ar
    34    19    41    1
    35    20    21   ar
    36    20    42    1
    37    21    22   ar
    38    21    24    1
    39    22    23   ar
    40    22    43    1
    41    23    44    1
    42    24    45    1
    43    26    46    1
    44    27    47    1
    45    28    48    1
    46    29    49    1
    47    30    50    1
    48     1    31    1
    49     1    27    1
    50     2    32    1
    51     2    28    1
    52     4    34    1
    53     4    30    1
