@<TRIPOS>MOLECULE
*****
 50 53 0 0 0
SMALL
GASTEIGER

@<TRIPOS>ATOM
     1 C         -1.021163   1.880847   -0.436398 C.3        1 UNL1     0.1889
     2 C         0.071308   1.054509   0.294088 C.3        1 UNL1     0.1342
     3 C         0.030666   1.151106   1.82689 C.3        1 UNL1     0.1174
     4 C         -0.402202   2.532917   2.323215 C.3        1 UNL1     0.1456
     5 C         -1.641861   3.064922   1.581203 C.3        1 UNL1     0.2326
     6 O         -1.388088   3.10693   0.178812 O.3        1 UNL1     -0.3076
     7 O         -2.854352   2.365636   1.916144 O.3        1 UNL1     -0.4605
     8 C         -2.720521   1.015769   2.187208 C.ar        1 UNL1     0.1310
     9 C         -2.25723   0.050464   1.286736 C.ar        1 UNL1     0.0226
     10 C         -2.140933   -1.29312   1.662445 C.ar        1 UNL1     0.1343
     11 C         -2.462884   -1.70039   2.9564 C.ar        1 UNL1     0.1007
     12 C         -2.965506   -0.75276   3.85203 C.ar        1 UNL1     0.1389
     13 C         -3.08485   0.597676   3.473203 C.ar        1 UNL1     0.0229
     14 C         -2.279642   -3.091235   3.431929 C.2        1 UNL1     0.1740
     15 C         -2.463175   -3.302896   4.90606 C.3        1 UNL1     0.0520
     16 C         -3.647451   -2.46569   5.369238 C.3        1 UNL1     0.1322
     17 O         -3.414455   -1.062821   5.114794 O.3        1 UNL1     -0.4828
     18 C         -4.999763   -2.984157   4.874095 C.ar        1 UNL1     -0.0067
     19 C         -6.186835   -2.417839   5.382384 C.ar        1 UNL1     -0.0516
     20 C         -7.439901   -2.900555   4.98644 C.ar        1 UNL1     -0.0198
     21 C         -7.519032   -3.951642   4.09046 C.ar        1 UNL1     0.1169
     22 C         -6.368438   -4.507964   3.546881 C.ar        1 UNL1     -0.0198
     23 C         -5.115603   -4.013219   3.928575 C.ar        1 UNL1     -0.0516
     24 O         -8.755909   -4.420038   3.757084 O.3        1 UNL1     -0.5068
     25 O         -1.922315   -4.01328   2.703481 O.2        1 UNL1     -0.2917
     26 O         -1.683686   -2.184916   0.736588 O.3        1 UNL1     -0.5058
     27 O         -2.159453   1.116266   -0.800402 O.3        1 UNL1     -0.3648
     28 O         1.362447   1.528861   -0.13095 O.3        1 UNL1     -0.3841
     29 O         -0.754108   0.093163   2.380984 O.3        1 UNL1     -0.3863
     30 O         0.685229   3.464992   2.137686 O.3        1 UNL1     -0.3829
     31 H         -0.589223   2.193695   -1.393285 H        1 UNL1     0.0937
     32 H         0.0   -0.0   0.0 H        1 UNL1     0.0671
     33 H         1.050605   0.984343   2.200569 H        1 UNL1     0.0649
     34 H         -0.612382   2.495375   3.397838 H        1 UNL1     0.0683
     35 H         -1.727636   4.10463   1.921099 H        1 UNL1     0.1085
     36 H         -1.938057   0.312634   0.283982 H        1 UNL1     0.0691
     37 H         -3.479906   1.315645   4.188705 H        1 UNL1     0.0691
     38 H         -1.539137   -2.989105   5.403269 H        1 UNL1     0.0385
     39 H         -2.610137   -4.370911   5.099771 H        1 UNL1     0.0385
     40 H         -3.689882   -2.542786   6.464124 H        1 UNL1     0.0789
     41 H         -6.151379   -1.597971   6.093869 H        1 UNL1     0.0623
     42 H         -8.347805   -2.463364   5.394592 H        1 UNL1     0.0654
     43 H         -6.419283   -5.321431   2.833021 H        1 UNL1     0.0654
     44 H         -4.237933   -4.464498   3.475929 H        1 UNL1     0.0623
     45 H         -9.383503   -4.145637   4.445231 H        1 UNL1     0.2921
     46 H         -1.028443   -2.770668   1.147638 H        1 UNL1     0.2922
     47 H         -2.803876   1.110911   -0.07891 H        1 UNL1     0.2126
     48 H         1.92173   1.571749   0.668484 H        1 UNL1     0.2101
     49 H         -0.194629   -0.683258   2.542065 H        1 UNL1     0.2100
     50 H         0.486537   4.006329   1.345734 H        1 UNL1     0.2102
@<TRIPOS>BOND
     1     1     2    1
     2     1     6    1
     3     2     3    1
     4     3     4    1
     5     3    29    1
     6     3    33    1
     7     4     5    1
     8     5     6    1
     9     5     7    1
    10     5    35    1
    11     7     8    1
    12     8     9   ar
    13     8    13   ar
    14     9    10   ar
    15     9    36    1
    16    10    11   ar
    17    10    26    1
    18    11    12   ar
    19    11    14    1
    20    12    13   ar
    21    12    17    1
    22    13    37    1
    23    14    15    1
    24    14    25    2
    25    15    16    1
    26    15    38    1
    27    15    39    1
    28    16    17    1
    29    16    18    1
    30    16    40    1
    31    18    19   ar
    32    18    23   ar
    33    19    20   ar
    34    19    41    1
    35    20    21   ar
    36    20    42    1
    37    21    22   ar
    38    21    24    1
    39    22    23   ar
    40    22    43    1
    41    23    44    1
    42    24    45    1
    43    26    46    1
    44    27    47    1
    45    28    48    1
    46    29    49    1
    47    30    50    1
    48     1    31    1
    49     1    27    1
    50     2    32    1
    51     2    28    1
    52     4    34    1
    53     4    30    1
