@<TRIPOS>MOLECULE
*****
 50 53 0 0 0
SMALL
GASTEIGER

@<TRIPOS>ATOM
     1 C         -0.567744   -1.413575   1.565336 C.3        1 UNL1     0.1889
     2 C         -0.578254   -0.927857   0.090918 C.3        1 UNL1     0.1342
     3 C         -1.978487   -0.705706   -0.501079 C.3        1 UNL1     0.1174
     4 C         -3.011222   -1.704879   0.026397 C.3        1 UNL1     0.1456
     5 C         -2.944478   -1.870802   1.555573 C.3        1 UNL1     0.2326
     6 O         -1.632891   -2.272884   1.944078 O.3        1 UNL1     -0.3076
     7 O         -3.421218   -0.721116   2.27825 O.3        1 UNL1     -0.4605
     8 C         -4.018273   -0.977458   3.499456 C.ar        1 UNL1     0.1310
     9 C         -4.96812   -1.975213   3.743537 C.ar        1 UNL1     0.0226
     10 C         -5.50308   -2.167791   5.022847 C.ar        1 UNL1     0.1343
     11 C         -5.083084   -1.382022   6.095232 C.ar        1 UNL1     0.1007
     12 C         -4.165553   -0.355643   5.855511 C.ar        1 UNL1     0.1389
     13 C         -3.629773   -0.160489   4.568544 C.ar        1 UNL1     0.0229
     14 C         -5.552568   -1.596978   7.483588 C.2        1 UNL1     0.1740
     15 C         -4.833134   -0.812329   8.541081 C.3        1 UNL1     0.0520
     16 C         -4.576194   0.590757   8.008834 C.3        1 UNL1     0.1322
     17 O         -3.76474   0.545501   6.814446 O.3        1 UNL1     -0.4828
     18 C         -5.840933   1.443819   7.884549 C.ar        1 UNL1     -0.0067
     19 C         -6.087304   2.146697   6.68727 C.ar        1 UNL1     -0.0516
     20 C         -7.209796   2.973217   6.557508 C.ar        1 UNL1     -0.0198
     21 C         -8.087531   3.110713   7.617934 C.ar        1 UNL1     0.1169
     22 C         -7.889834   2.405378   8.797873 C.ar        1 UNL1     -0.0198
     23 C         -6.777352   1.56443   8.921355 C.ar        1 UNL1     -0.0516
     24 O         -9.149166   3.953855   7.468122 O.3        1 UNL1     -0.5068
     25 O         -6.416056   -2.416348   7.78609 O.2        1 UNL1     -0.2917
     26 O         -6.426576   -3.157469   5.193956 O.3        1 UNL1     -0.5058
     27 O         -0.380385   -0.366546   2.504173 O.3        1 UNL1     -0.3648
     28 O         0.077574   -1.919723   -0.720745 O.3        1 UNL1     -0.3841
     29 O         -2.388842   0.653205   -0.336453 O.3        1 UNL1     -0.3863
     30 O         -2.784161   -2.990885   -0.590304 O.3        1 UNL1     -0.3829
     31 H         0.321943   -2.042135   1.681297 H        1 UNL1     0.0937
     32 H         0.0   0.0   0.0 H        1 UNL1     0.0671
     33 H         -1.911946   -0.860881   -1.586995 H        1 UNL1     0.0649
     34 H         -4.01981   -1.386074   -0.25911 H        1 UNL1     0.0683
     35 H         -3.611227   -2.718102   1.75906 H        1 UNL1     0.1085
     36 H         -5.294002   -2.655199   2.964088 H        1 UNL1     0.0691
     37 H         -2.917821   0.646233   4.407869 H        1 UNL1     0.0691
     38 H         -3.893048   -1.331317   8.75653 H        1 UNL1     0.0385
     39 H         -5.436702   -0.804362   9.455094 H        1 UNL1     0.0385
     40 H         -3.94868   1.107359   8.747663 H        1 UNL1     0.0789
     41 H         -5.408487   2.062716   5.843584 H        1 UNL1     0.0623
     42 H         -7.382422   3.519278   5.633371 H        1 UNL1     0.0654
     43 H         -8.57904   2.494034   9.629164 H        1 UNL1     0.0654
     44 H         -6.659713   1.020333   9.853538 H        1 UNL1     0.0623
     45 H         -8.8095   4.849051   7.306977 H        1 UNL1     0.2921
     46 H         -6.121795   -3.768735   5.883067 H        1 UNL1     0.2922
     47 H         0.432025   0.119721   2.305694 H        1 UNL1     0.2126
     48 H         1.000531   -1.972967   -0.406026 H        1 UNL1     0.2101
     49 H         -1.856427   1.230135   -0.906961 H        1 UNL1     0.2100
     50 H         -2.97255   -2.903624   -1.5477 H        1 UNL1     0.2102
@<TRIPOS>BOND
     1     1     2    1
     2     1     6    1
     3     2     3    1
     4     3     4    1
     5     3    29    1
     6     3    33    1
     7     4     5    1
     8     5     6    1
     9     5     7    1
    10     5    35    1
    11     7     8    1
    12     8     9   ar
    13     8    13   ar
    14     9    10   ar
    15     9    36    1
    16    10    11   ar
    17    10    26    1
    18    11    12   ar
    19    11    14    1
    20    12    13   ar
    21    12    17    1
    22    13    37    1
    23    14    15    1
    24    14    25    2
    25    15    16    1
    26    15    38    1
    27    15    39    1
    28    16    17    1
    29    16    18    1
    30    16    40    1
    31    18    19   ar
    32    18    23   ar
    33    19    20   ar
    34    19    41    1
    35    20    21   ar
    36    20    42    1
    37    21    22   ar
    38    21    24    1
    39    22    23   ar
    40    22    43    1
    41    23    44    1
    42    24    45    1
    43    26    46    1
    44    27    47    1
    45    28    48    1
    46    29    49    1
    47    30    50    1
    48     1    31    1
    49     1    27    1
    50     2    32    1
    51     2    28    1
    52     4    34    1
    53     4    30    1
