@<TRIPOS>MOLECULE
*****
 50 53 0 0 0
SMALL
GASTEIGER

@<TRIPOS>ATOM
     1 C         -0.724516   1.864264   -0.877725 C.3        1 UNL1     0.1889
     2 C         0.266125   1.064253   0.01028 C.3        1 UNL1     0.1342
     3 C         0.353429   1.544904   1.466926 C.3        1 UNL1     0.1174
     4 C         0.192576   3.061128   1.602241 C.3        1 UNL1     0.1456
     5 C         -0.992408   3.604385   0.783066 C.3        1 UNL1     0.2326
     6 O         -0.837672   3.250048   -0.589293 O.3        1 UNL1     -0.3076
     7 O         -2.276407   3.238697   1.320599 O.3        1 UNL1     -0.4605
     8 C         -3.022941   2.356547   0.560319 C.ar        1 UNL1     0.1310
     9 C         -3.874005   1.368823   1.067657 C.ar        1 UNL1     0.0226
     10 C         -4.602901   0.532928   0.21332 C.ar        1 UNL1     0.1343
     11 C         -4.516499   0.680387   -1.170382 C.ar        1 UNL1     0.1007
     12 C         -3.638746   1.635923   -1.68931 C.ar        1 UNL1     0.1389
     13 C         -2.903949   2.474522   -0.830092 C.ar        1 UNL1     0.0229
     14 C         -5.327391   -0.119173   -2.117647 C.2        1 UNL1     0.1740
     15 C         -5.274327   0.3221   -3.550829 C.3        1 UNL1     0.0520
     16 C         -3.84049   0.712512   -3.881959 C.3        1 UNL1     0.1322
     17 O         -3.394514   1.793648   -3.033832 O.3        1 UNL1     -0.4828
     18 C         -2.878917   -0.476218   -3.952819 C.ar        1 UNL1     -0.0067
     19 C         -3.383547   -1.784798   -3.807279 C.ar        1 UNL1     -0.0516
     20 C         -2.525608   -2.891031   -3.819637 C.ar        1 UNL1     -0.0198
     21 C         -1.163366   -2.701852   -3.969088 C.ar        1 UNL1     0.1169
     22 C         -0.639982   -1.42794   -4.148128 C.ar        1 UNL1     -0.0198
     23 C         -1.499671   -0.322973   -4.154294 C.ar        1 UNL1     -0.0516
     24 O         -0.354957   -3.799998   -3.93828 O.3        1 UNL1     -0.5068
     25 O         -6.065847   -1.036398   -1.768553 O.2        1 UNL1     -0.2917
     26 O         -5.414331   -0.41117   0.771751 O.3        1 UNL1     -0.5058
     27 O         -1.997093   1.249231   -1.000487 O.3        1 UNL1     -0.3648
     28 O         1.583681   1.179349   -0.558494 O.3        1 UNL1     -0.3841
     29 O         -0.553392   0.815923   2.296622 O.3        1 UNL1     -0.3863
     30 O         1.402976   3.707936   1.152508 O.3        1 UNL1     -0.3829
     31 H         -0.317352   1.846777   -1.894578 H        1 UNL1     0.0937
     32 H         0.0   0.0   0.0 H        1 UNL1     0.0671
     33 H         1.356064   1.296925   1.842358 H        1 UNL1     0.0649
     34 H         0.057659   3.330361   2.65567 H        1 UNL1     0.0683
     35 H         -0.879903   4.694013   0.845785 H        1 UNL1     0.1085
     36 H         -4.027474   1.240903   2.133586 H        1 UNL1     0.0691
     37 H         -2.226586   3.209775   -1.259133 H        1 UNL1     0.0691
     38 H         -5.951369   1.176084   -3.659698 H        1 UNL1     0.0385
     39 H         -5.640803   -0.488573   -4.189799 H        1 UNL1     0.0385
     40 H         -3.847114   1.141586   -4.893083 H        1 UNL1     0.0789
     41 H         -4.44792   -1.959127   -3.679339 H        1 UNL1     0.0623
     42 H         -2.925613   -3.894206   -3.694546 H        1 UNL1     0.0654
     43 H         0.423591   -1.269666   -4.28107 H        1 UNL1     0.0654
     44 H         -1.057584   0.656831   -4.307225 H        1 UNL1     0.0623
     45 H         -0.904982   -4.580949   -3.764197 H        1 UNL1     0.2921
     46 H         -6.295347   -0.360019   0.368506 H        1 UNL1     0.2922
     47 H         -2.00395   0.398988   -0.539077 H        1 UNL1     0.2126
     48 H         1.877734   2.096964   -0.399592 H        1 UNL1     0.2101
     49 H         -1.426615   0.775538   1.875143 H        1 UNL1     0.2100
     50 H         1.747804   3.203448   0.386808 H        1 UNL1     0.2102
@<TRIPOS>BOND
     1     1     2    1
     2     1     6    1
     3     2     3    1
     4     3     4    1
     5     3    29    1
     6     3    33    1
     7     4     5    1
     8     5     6    1
     9     5     7    1
    10     5    35    1
    11     7     8    1
    12     8     9   ar
    13     8    13   ar
    14     9    10   ar
    15     9    36    1
    16    10    11   ar
    17    10    26    1
    18    11    12   ar
    19    11    14    1
    20    12    13   ar
    21    12    17    1
    22    13    37    1
    23    14    15    1
    24    14    25    2
    25    15    16    1
    26    15    38    1
    27    15    39    1
    28    16    17    1
    29    16    18    1
    30    16    40    1
    31    18    19   ar
    32    18    23   ar
    33    19    20   ar
    34    19    41    1
    35    20    21   ar
    36    20    42    1
    37    21    22   ar
    38    21    24    1
    39    22    23   ar
    40    22    43    1
    41    23    44    1
    42    24    45    1
    43    26    46    1
    44    27    47    1
    45    28    48    1
    46    29    49    1
    47    30    50    1
    48     1    31    1
    49     1    27    1
    50     2    32    1
    51     2    28    1
    52     4    34    1
    53     4    30    1
