@<TRIPOS>MOLECULE
*****
 50 53 0 0 0
SMALL
GASTEIGER

@<TRIPOS>ATOM
     1 C         -0.216633   -1.186756   1.820847 C.3        1 UNL1     0.1889
     2 C         -0.523773   -0.907533   0.324973 C.3        1 UNL1     0.1342
     3 C         -2.017313   -0.770645   -0.008292 C.3        1 UNL1     0.1174
     4 C         -2.901066   -1.689724   0.838698 C.3        1 UNL1     0.1456
     5 C         -2.537211   -1.644582   2.334003 C.3        1 UNL1     0.2326
     6 O         -1.164673   -1.987706   2.510844 O.3        1 UNL1     -0.3076
     7 O         -2.898307   -0.407483   2.974717 O.3        1 UNL1     -0.4605
     8 C         -3.242244   -0.495077   4.311715 C.ar        1 UNL1     0.1310
     9 C         -4.099161   -1.451434   4.867029 C.ar        1 UNL1     0.0226
     10 C         -4.372812   -1.467816   6.23989 C.ar        1 UNL1     0.1343
     11 C         -3.776852   -0.54197   7.095156 C.ar        1 UNL1     0.1007
     12 C         -2.951601   0.443291   6.546516 C.ar        1 UNL1     0.1389
     13 C         -2.678689   0.461177   5.165708 C.ar        1 UNL1     0.0229
     14 C         -3.964699   -0.565487   8.564277 C.2        1 UNL1     0.1740
     15 C         -3.077825   0.357659   9.347096 C.3        1 UNL1     0.0520
     16 C         -2.967352   1.675028   8.591919 C.3        1 UNL1     0.1322
     17 O         -2.399486   1.467861   7.279791 O.3        1 UNL1     -0.4828
     18 C         -4.255827   2.501134   8.602296 C.ar        1 UNL1     -0.0067
     19 C         -4.7477   3.032284   7.392274 C.ar        1 UNL1     -0.0516
     20 C         -5.896954   3.831543   7.373233 C.ar        1 UNL1     -0.0198
     21 C         -6.55767   4.112399   8.555774 C.ar        1 UNL1     0.1169
     22 C         -6.116809   3.576362   9.758747 C.ar        1 UNL1     -0.0198
     23 C         -4.978178   2.761934   9.775576 C.ar        1 UNL1     -0.0516
     24 O         -7.651556   4.925447   8.503176 O.3        1 UNL1     -0.5068
     25 O         -4.73068   -1.337011   9.135687 O.2        1 UNL1     -0.2917
     26 O         -5.218123   -2.426126   6.718093 O.3        1 UNL1     -0.5058
     27 O         0.118138   -0.020749   2.556471 O.3        1 UNL1     -0.3648
     28 O         -0.008514   -2.000217   -0.458135 O.3        1 UNL1     -0.3841
     29 O         -2.426345   0.59739   0.049189 O.3        1 UNL1     -0.3863
     30 O         -2.760722   -3.047723   0.367708 O.3        1 UNL1     -0.3829
     31 H         0.69603   -1.79218   1.845091 H        1 UNL1     0.0937
     32 H         0.0   0.0   0.0 H        1 UNL1     0.0671
     33 H         -2.156272   -1.072961   -1.055677 H        1 UNL1     0.0649
     34 H         -3.954249   -1.414534   0.714295 H        1 UNL1     0.0683
     35 H         -3.128432   -2.457036   2.774748 H        1 UNL1     0.1085
     36 H         -4.549496   -2.232239   4.263984 H        1 UNL1     0.0691
     37 H         -2.033763   1.239365   4.763233 H        1 UNL1     0.0691
     38 H         -2.099686   -0.125524   9.443548 H        1 UNL1     0.0385
     39 H         -3.49457   0.489808   10.351406 H        1 UNL1     0.0385
     40 H         -2.224344   2.288879   9.118841 H        1 UNL1     0.0789
     41 H         -4.241887   2.833977   6.451807 H        1 UNL1     0.0623
     42 H         -6.25951   4.245044   6.435373 H        1 UNL1     0.0654
     43 H         -6.635331   3.777581   10.688562 H        1 UNL1     0.0654
     44 H         -4.668066   2.351409   10.731685 H        1 UNL1     0.0623
     45 H         -7.37615   5.787773   8.152087 H        1 UNL1     0.2921
     46 H         -4.769161   -2.937709   7.409562 H        1 UNL1     0.2922
     47 H         0.865104   0.433491   2.142265 H        1 UNL1     0.2126
     48 H         0.956733   -2.019077   -0.310908 H        1 UNL1     0.2101
     49 H         -3.014039   0.734467   0.809202 H        1 UNL1     0.2100
     50 H         -3.126731   -3.091392   -0.53995 H        1 UNL1     0.2102
@<TRIPOS>BOND
     1     1     2    1
     2     1     6    1
     3     2     3    1
     4     3     4    1
     5     3    29    1
     6     3    33    1
     7     4     5    1
     8     5     6    1
     9     5     7    1
    10     5    35    1
    11     7     8    1
    12     8     9   ar
    13     8    13   ar
    14     9    10   ar
    15     9    36    1
    16    10    11   ar
    17    10    26    1
    18    11    12   ar
    19    11    14    1
    20    12    13   ar
    21    12    17    1
    22    13    37    1
    23    14    15    1
    24    14    25    2
    25    15    16    1
    26    15    38    1
    27    15    39    1
    28    16    17    1
    29    16    18    1
    30    16    40    1
    31    18    19   ar
    32    18    23   ar
    33    19    20   ar
    34    19    41    1
    35    20    21   ar
    36    20    42    1
    37    21    22   ar
    38    21    24    1
    39    22    23   ar
    40    22    43    1
    41    23    44    1
    42    24    45    1
    43    26    46    1
    44    27    47    1
    45    28    48    1
    46    29    49    1
    47    30    50    1
    48     1    31    1
    49     1    27    1
    50     2    32    1
    51     2    28    1
    52     4    34    1
    53     4    30    1
