@<TRIPOS>MOLECULE
*****
 50 53 0 0 0
SMALL
GASTEIGER

@<TRIPOS>ATOM
     1 C         -0.32951   -1.380771   1.66003 C.3        1 UNL1     0.1889
     2 C         -0.466667   -0.978742   0.166878 C.3        1 UNL1     0.1342
     3 C         -1.910441   -0.941375   -0.357129 C.3        1 UNL1     0.1174
     4 C         -2.798742   -2.016673   0.273562 C.3        1 UNL1     0.1456
     5 C         -2.638497   -2.09223   1.802933 C.3        1 UNL1     0.2326
     6 O         -1.272836   -2.328704   2.137475 O.3        1 UNL1     -0.3076
     7 O         -3.203382   -0.963788   2.494919 O.3        1 UNL1     -0.4605
     8 C         -3.710648   -1.21817   3.756466 C.ar        1 UNL1     0.1310
     9 C         -4.524753   -2.303199   4.098879 C.ar        1 UNL1     0.0226
     10 C         -4.975296   -2.483948   5.411984 C.ar        1 UNL1     0.1343
     11 C         -4.602714   -1.596247   6.420453 C.ar        1 UNL1     0.1007
     12 C         -3.823835   -0.486298   6.082599 C.ar        1 UNL1     0.1389
     13 C         -3.373126   -0.303329   4.761684 C.ar        1 UNL1     0.0229
     14 C         -4.980766   -1.785552   7.840099 C.2        1 UNL1     0.1740
     15 C         -4.311663   -0.86539   8.818439 C.3        1 UNL1     0.0520
     16 C         -4.245542   0.525868   8.203632 C.3        1 UNL1     0.1322
     17 O         -3.488941   0.507267   6.973072 O.3        1 UNL1     -0.4828
     18 C         -5.606043   1.219631   8.101384 C.ar        1 UNL1     -0.0067
     19 C         -5.73873   2.368414   7.294598 C.ar        1 UNL1     -0.0516
     20 C         -6.956623   3.054388   7.216238 C.ar        1 UNL1     -0.0198
     21 C         -8.04478   2.606927   7.94392 C.ar        1 UNL1     0.1169
     22 C         -7.954487   1.459458   8.721096 C.ar        1 UNL1     -0.0198
     23 C         -6.741849   0.762709   8.785169 C.ar        1 UNL1     -0.0516
     24 O         -9.203803   3.32242   7.87226 O.3        1 UNL1     -0.5068
     25 O         -5.727527   -2.680461   8.227361 O.2        1 UNL1     -0.2917
     26 O         -5.76749   -3.562028   5.679858 O.3        1 UNL1     -0.5058
     27 O         -0.213139   -0.27083   2.535972 O.3        1 UNL1     -0.3648
     28 O         0.254095   -1.935916   -0.63126 O.3        1 UNL1     -0.3841
     29 O         -2.460209   0.372042   -0.235371 O.3        1 UNL1     -0.3863
     30 O         -2.461346   -3.301764   -0.292472 O.3        1 UNL1     -0.3829
     31 H         0.628989   -1.902302   1.7568 H        1 UNL1     0.0937
     32 H         0.0   0.0   0.0 H        1 UNL1     0.0671
     33 H         -1.880889   -1.146403   -1.436393 H        1 UNL1     0.0649
     34 H         -3.849322   -1.824579   0.029056 H        1 UNL1     0.0683
     35 H         -3.196365   -2.994544   2.083096 H        1 UNL1     0.1085
     36 H         -4.80322   -3.058748   3.372435 H        1 UNL1     0.0691
     37 H         -2.768832   0.569574   4.524278 H        1 UNL1     0.0691
     38 H         -3.308383   -1.260016   9.011383 H        1 UNL1     0.0385
     39 H         -4.87026   -0.875602   9.760587 H        1 UNL1     0.0385
     40 H         -3.650471   1.151757   8.882362 H        1 UNL1     0.0789
     41 H         -4.896928   2.745059   6.720875 H        1 UNL1     0.0623
     42 H         -7.043015   3.945833   6.599899 H        1 UNL1     0.0654
     43 H         -8.804613   1.091686   9.283181 H        1 UNL1     0.0654
     44 H         -6.71009   -0.135778   9.393903 H        1 UNL1     0.0623
     45 H         -9.049595   4.196333   8.266231 H        1 UNL1     0.2921
     46 H         -5.373556   -4.082577   6.397672 H        1 UNL1     0.2922
     47 H         0.518386   0.298631   2.259484 H        1 UNL1     0.2126
     48 H         1.19913   -1.830581   -0.408674 H        1 UNL1     0.2101
     49 H         -2.027964   0.970435   -0.865358 H        1 UNL1     0.2100
     50 H         -2.726114   -3.294685   -1.235637 H        1 UNL1     0.2102
@<TRIPOS>BOND
     1     1     2    1
     2     1     6    1
     3     2     3    1
     4     3     4    1
     5     3    29    1
     6     3    33    1
     7     4     5    1
     8     5     6    1
     9     5     7    1
    10     5    35    1
    11     7     8    1
    12     8     9   ar
    13     8    13   ar
    14     9    10   ar
    15     9    36    1
    16    10    11   ar
    17    10    26    1
    18    11    12   ar
    19    11    14    1
    20    12    13   ar
    21    12    17    1
    22    13    37    1
    23    14    15    1
    24    14    25    2
    25    15    16    1
    26    15    38    1
    27    15    39    1
    28    16    17    1
    29    16    18    1
    30    16    40    1
    31    18    19   ar
    32    18    23   ar
    33    19    20   ar
    34    19    41    1
    35    20    21   ar
    36    20    42    1
    37    21    22   ar
    38    21    24    1
    39    22    23   ar
    40    22    43    1
    41    23    44    1
    42    24    45    1
    43    26    46    1
    44    27    47    1
    45    28    48    1
    46    29    49    1
    47    30    50    1
    48     1    31    1
    49     1    27    1
    50     2    32    1
    51     2    28    1
    52     4    34    1
    53     4    30    1
