@<TRIPOS>MOLECULE
*****
 50 53 0 0 0
SMALL
GASTEIGER

@<TRIPOS>ATOM
     1 C         -0.699965   -1.821917   0.980546 C.3        1 UNL1     0.1889
     2 C         -0.004451   -1.080055   -0.192416 C.3        1 UNL1     0.1342
     3 C         -0.62485   -1.340422   -1.57364 C.3        1 UNL1     0.1174
     4 C         -1.15892   -2.766947   -1.725014 C.3        1 UNL1     0.1456
     5 C         -1.997679   -3.214753   -0.514099 C.3        1 UNL1     0.2326
     6 O         -1.22493   -3.106443   0.679214 O.3        1 UNL1     -0.3076
     7 O         -3.273033   -2.553898   -0.424297 O.3        1 UNL1     -0.4605
     8 C         -4.300218   -3.292091   0.135603 C.ar        1 UNL1     0.1310
     9 C         -4.605017   -4.621803   -0.174665 C.ar        1 UNL1     0.0226
     10 C         -5.65793   -5.290301   0.461251 C.ar        1 UNL1     0.1343
     11 C         -6.417247   -4.652092   1.44103 C.ar        1 UNL1     0.1007
     12 C         -6.148673   -3.31152   1.730025 C.ar        1 UNL1     0.1389
     13 C         -5.091617   -2.638757   1.088579 C.ar        1 UNL1     0.0229
     14 C         -7.486604   -5.336514   2.204048 C.2        1 UNL1     0.1740
     15 C         -8.045763   -4.571212   3.367321 C.3        1 UNL1     0.0520
     16 C         -8.184668   -3.110525   2.961051 C.3        1 UNL1     0.1322
     17 O         -6.901458   -2.555013   2.597941 O.3        1 UNL1     -0.4828
     18 C         -9.296996   -2.857934   1.940439 C.ar        1 UNL1     -0.0067
     19 C         -9.023012   -2.082322   0.795201 C.ar        1 UNL1     -0.0516
     20 C         -10.029483   -1.792667   -0.13382 C.ar        1 UNL1     -0.0198
     21 C         -11.3128   -2.265536   0.074314 C.ar        1 UNL1     0.1169
     22 C         -11.605767   -3.059885   1.175232 C.ar        1 UNL1     -0.0198
     23 C         -10.595202   -3.365103   2.094827 C.ar        1 UNL1     -0.0516
     24 O         -12.275571   -1.931509   -0.832271 O.3        1 UNL1     -0.5068
     25 O         -7.853784   -6.485263   1.971583 O.2        1 UNL1     -0.2917
     26 O         -5.904   -6.586184   0.112367 O.3        1 UNL1     -0.5058
     27 O         -1.641895   -1.021281   1.676633 O.3        1 UNL1     -0.3648
     28 O         1.368955   -1.50771   -0.252189 O.3        1 UNL1     -0.3841
     29 O         -1.603724   -0.347019   -1.88523 O.3        1 UNL1     -0.3863
     30 O         -0.046846   -3.675114   -1.880624 O.3        1 UNL1     -0.3829
     31 H         0.077552   -2.030885   1.723431 H        1 UNL1     0.0937
     32 H         0.0   0.0   0.0 H        1 UNL1     0.0671
     33 H         0.166772   -1.215976   -2.325682 H        1 UNL1     0.0649
     34 H         -1.765784   -2.844601   -2.633906 H        1 UNL1     0.0683
     35 H         -2.165241   -4.284808   -0.689558 H        1 UNL1     0.1085
     36 H         -4.016947   -5.190401   -0.886697 H        1 UNL1     0.0691
     37 H         -4.903728   -1.594898   1.330549 H        1 UNL1     0.0691
     38 H         -7.348021   -4.683818   4.203983 H        1 UNL1     0.0385
     39 H         -9.004616   -5.01261   3.659803 H        1 UNL1     0.0385
     40 H         -8.48165   -2.551667   3.858825 H        1 UNL1     0.0789
     41 H         -8.025901   -1.691801   0.613776 H        1 UNL1     0.0623
     42 H         -9.808455   -1.183564   -1.006834 H        1 UNL1     0.0654
     43 H         -12.603847   -3.447942   1.340029 H        1 UNL1     0.0654
     44 H         -10.857102   -3.997135   2.93791 H        1 UNL1     0.0623
     45 H         -12.362116   -0.964528   -0.845503 H        1 UNL1     0.2921
     46 H         -5.864533   -7.147167   0.903032 H        1 UNL1     0.2922
     47 H         -1.221463   -0.210365   1.995239 H        1 UNL1     0.2126
     48 H         1.78292   -1.237556   0.590059 H        1 UNL1     0.2101
     49 H         -1.169902   0.50787   -2.036085 H        1 UNL1     0.2100
     50 H         0.392626   -3.470565   -2.731939 H        1 UNL1     0.2102
@<TRIPOS>BOND
     1     1     2    1
     2     1     6    1
     3     2     3    1
     4     3     4    1
     5     3    29    1
     6     3    33    1
     7     4     5    1
     8     5     6    1
     9     5     7    1
    10     5    35    1
    11     7     8    1
    12     8     9   ar
    13     8    13   ar
    14     9    10   ar
    15     9    36    1
    16    10    11   ar
    17    10    26    1
    18    11    12   ar
    19    11    14    1
    20    12    13   ar
    21    12    17    1
    22    13    37    1
    23    14    15    1
    24    14    25    2
    25    15    16    1
    26    15    38    1
    27    15    39    1
    28    16    17    1
    29    16    18    1
    30    16    40    1
    31    18    19   ar
    32    18    23   ar
    33    19    20   ar
    34    19    41    1
    35    20    21   ar
    36    20    42    1
    37    21    22   ar
    38    21    24    1
    39    22    23   ar
    40    22    43    1
    41    23    44    1
    42    24    45    1
    43    26    46    1
    44    27    47    1
    45    28    48    1
    46    29    49    1
    47    30    50    1
    48     1    31    1
    49     1    27    1
    50     2    32    1
    51     2    28    1
    52     4    34    1
    53     4    30    1
