@<TRIPOS>MOLECULE
*****
 50 53 0 0 0
SMALL
GASTEIGER

@<TRIPOS>ATOM
     1 C         -0.23468   -1.277496   1.756056 C.3        1 UNL1     0.1889
     2 C         -0.409056   -0.989094   0.240683 C.3        1 UNL1     0.1342
     3 C         -1.857753   -1.068741   -0.264686 C.3        1 UNL1     0.1174
     4 C         -2.677718   -2.145005   0.451156 C.3        1 UNL1     0.1456
     5 C         -2.498345   -2.104424   1.979731 C.3        1 UNL1     0.2326
     6 O         -1.118278   -2.240676   2.310973 O.3        1 UNL1     -0.3076
     7 O         -3.119094   -0.963498   2.599634 O.3        1 UNL1     -0.4605
     8 C         -3.595325   -1.155777   3.884064 C.ar        1 UNL1     0.1310
     9 C         -4.349867   -2.253136   4.312747 C.ar        1 UNL1     0.0226
     10 C         -4.772364   -2.36579   5.642675 C.ar        1 UNL1     0.1343
     11 C         -4.429959   -1.3946   6.582563 C.ar        1 UNL1     0.1007
     12 C         -3.711765   -0.273802   6.157367 C.ar        1 UNL1     0.1389
     13 C         -3.289322   -0.159459   4.819496 C.ar        1 UNL1     0.0229
     14 C         -4.778137   -1.50503   8.018088 C.2        1 UNL1     0.1740
     15 C         -4.141634   -0.489193   8.920577 C.3        1 UNL1     0.0520
     16 C         -4.15307   0.858618   8.212598 C.3        1 UNL1     0.1322
     17 O         -3.413897   0.793037   6.973084 O.3        1 UNL1     -0.4828
     18 C         -5.547522   1.477179   8.087655 C.ar        1 UNL1     -0.0067
     19 C         -5.975127   1.974752   6.839541 C.ar        1 UNL1     -0.0516
     20 C         -7.225438   2.589238   6.701363 C.ar        1 UNL1     -0.0198
     21 C         -8.052446   2.718564   7.802798 C.ar        1 UNL1     0.1169
     22 C         -7.67332   2.208656   9.037746 C.ar        1 UNL1     -0.0198
     23 C         -6.430808   1.577658   9.172138 C.ar        1 UNL1     -0.0516
     24 O         -9.246763   3.356459   7.638188 O.3        1 UNL1     -0.5068
     25 O         -5.474194   -2.406625   8.477562 O.2        1 UNL1     -0.2917
     26 O         -5.506418   -3.460233   5.996151 O.3        1 UNL1     -0.5058
     27 O         -0.172427   -0.104279   2.551338 O.3        1 UNL1     -0.3648
     28 O         0.356605   -1.958198   -0.499119 O.3        1 UNL1     -0.3841
     29 O         -2.479483   0.217391   -0.226607 O.3        1 UNL1     -0.3863
     30 O         -2.274005   -3.445789   -0.029121 O.3        1 UNL1     -0.3829
     31 H         0.752615   -1.736915   1.87548 H        1 UNL1     0.0937
     32 H         0.0   0.0   0.0 H        1 UNL1     0.0671
     33 H         -1.827365   -1.346768   -1.327464 H        1 UNL1     0.0649
     34 H         -3.739827   -2.029152   0.208452 H        1 UNL1     0.0683
     35 H         -3.001642   -3.014542   2.329381 H        1 UNL1     0.1085
     36 H         -4.60084   -3.068909   3.643683 H        1 UNL1     0.0691
     37 H         -2.732342   0.723501   4.513476 H        1 UNL1     0.0691
     38 H         -3.117446   -0.82078   9.12211 H        1 UNL1     0.0385
     39 H         -4.685706   -0.46235   9.870862 H        1 UNL1     0.0385
     40 H         -3.580171   1.557258   8.837265 H        1 UNL1     0.0789
     41 H         -5.340609   1.89364   5.961784 H        1 UNL1     0.0623
     42 H         -7.538818   2.979544   5.736238 H        1 UNL1     0.0654
     43 H         -8.319547   2.291127   9.903483 H        1 UNL1     0.0654
     44 H         -6.171427   1.181554   10.14921 H        1 UNL1     0.0623
     45 H         -9.071333   4.264021   7.341082 H        1 UNL1     0.2921
     46 H         -5.06483   -3.924381   6.724833 H        1 UNL1     0.2922
     47 H         0.536647   0.474844   2.238784 H        1 UNL1     0.2126
     48 H         1.289762   -1.835274   -0.238657 H        1 UNL1     0.2101
     49 H         -2.081852   0.796123   -0.896497 H        1 UNL1     0.2100
     50 H         -2.522747   -3.508653   -0.974577 H        1 UNL1     0.2102
@<TRIPOS>BOND
     1     1     2    1
     2     1     6    1
     3     2     3    1
     4     3     4    1
     5     3    29    1
     6     3    33    1
     7     4     5    1
     8     5     6    1
     9     5     7    1
    10     5    35    1
    11     7     8    1
    12     8     9   ar
    13     8    13   ar
    14     9    10   ar
    15     9    36    1
    16    10    11   ar
    17    10    26    1
    18    11    12   ar
    19    11    14    1
    20    12    13   ar
    21    12    17    1
    22    13    37    1
    23    14    15    1
    24    14    25    2
    25    15    16    1
    26    15    38    1
    27    15    39    1
    28    16    17    1
    29    16    18    1
    30    16    40    1
    31    18    19   ar
    32    18    23   ar
    33    19    20   ar
    34    19    41    1
    35    20    21   ar
    36    20    42    1
    37    21    22   ar
    38    21    24    1
    39    22    23   ar
    40    22    43    1
    41    23    44    1
    42    24    45    1
    43    26    46    1
    44    27    47    1
    45    28    48    1
    46    29    49    1
    47    30    50    1
    48     1    31    1
    49     1    27    1
    50     2    32    1
    51     2    28    1
    52     4    34    1
    53     4    30    1
