@<TRIPOS>MOLECULE
*****
 50 53 0 0 0
SMALL
GASTEIGER

@<TRIPOS>ATOM
     1 C         -0.323299   -1.362572   1.67621 C.3        1 UNL1     0.1889
     2 C         -0.464528   -0.977627   0.178942 C.3        1 UNL1     0.1342
     3 C         -1.909539   -0.948726   -0.342184 C.3        1 UNL1     0.1174
     4 C         -2.794486   -2.018429   0.302581 C.3        1 UNL1     0.1456
     5 C         -2.630675   -2.076473   1.832339 C.3        1 UNL1     0.2326
     6 O         -1.263843   -2.306741   2.16643 O.3        1 UNL1     -0.3076
     7 O         -3.196037   -0.941315   2.512855 O.3        1 UNL1     -0.4605
     8 C         -3.706832   -1.183948   3.775292 C.ar        1 UNL1     0.1310
     9 C         -4.531552   -2.259279   4.122855 C.ar        1 UNL1     0.0226
     10 C         -4.98497   -2.428542   5.4365 C.ar        1 UNL1     0.1343
     11 C         -4.604839   -1.538932   6.44046 C.ar        1 UNL1     0.1007
     12 C         -3.815109   -0.438322   6.097287 C.ar        1 UNL1     0.1389
     13 C         -3.361498   -0.266883   4.775819 C.ar        1 UNL1     0.0229
     14 C         -4.985947   -1.71686   7.86076 C.2        1 UNL1     0.1740
     15 C         -4.308972   -0.797781   8.834694 C.3        1 UNL1     0.0520
     16 C         -4.229037   0.589401   8.212363 C.3        1 UNL1     0.1322
     17 O         -3.47155   0.55686   6.982638 O.3        1 UNL1     -0.4828
     18 C         -5.582768   1.295531   8.105045 C.ar        1 UNL1     -0.0067
     19 C         -5.950392   1.907053   6.888859 C.ar        1 UNL1     -0.0516
     20 C         -7.160158   2.601705   6.771015 C.ar        1 UNL1     -0.0198
     21 C         -8.005682   2.698065   7.861717 C.ar        1 UNL1     0.1169
     22 C         -7.686816   2.078046   9.062858 C.ar        1 UNL1     -0.0198
     23 C         -6.485672   1.367684   9.175537 C.ar        1 UNL1     -0.0516
     24 O         -9.157581   3.414698   7.720418 O.3        1 UNL1     -0.5068
     25 O         -5.741553   -2.602479   8.252197 O.2        1 UNL1     -0.2917
     26 O         -5.787648   -3.497542   5.709508 O.3        1 UNL1     -0.5058
     27 O         -0.206962   -0.242632   2.539336 O.3        1 UNL1     -0.3648
     28 O         0.256163   -1.942449   -0.61 O.3        1 UNL1     -0.3841
     29 O         -2.461397   0.365   -0.233976 O.3        1 UNL1     -0.3863
     30 O         -2.456047   -3.309212   -0.249712 O.3        1 UNL1     -0.3829
     31 H         0.636353   -1.881277   1.776676 H        1 UNL1     0.0937
     32 H         0.0   0.0   0.0 H        1 UNL1     0.0671
     33 H         -1.882039   -1.165843   -1.419136 H        1 UNL1     0.0649
     34 H         -3.845956   -1.830966   0.058307 H        1 UNL1     0.0683
     35 H         -3.186288   -2.976564   2.123905 H        1 UNL1     0.1085
     36 H         -4.816563   -3.016101   3.400283 H        1 UNL1     0.0691
     37 H         -2.748695   0.598909   4.534222 H        1 UNL1     0.0691
     38 H         -3.309674   -1.200891   9.030737 H        1 UNL1     0.0385
     39 H         -4.868482   -0.797516   9.776356 H        1 UNL1     0.0385
     40 H         -3.62863   1.213291   8.888228 H        1 UNL1     0.0789
     41 H         -5.29983   1.853544   6.020782 H        1 UNL1     0.0623
     42 H         -7.426875   3.079095   5.831349 H        1 UNL1     0.0654
     43 H         -8.348688   2.134467   9.918809 H        1 UNL1     0.0654
     44 H         -6.273475   0.88679   10.125567 H        1 UNL1     0.0623
     45 H         -8.923301   4.336603   7.525684 H        1 UNL1     0.2921
     46 H         -5.388204   -4.030125   6.415349 H        1 UNL1     0.2922
     47 H         0.522914   0.324977   2.2548 H        1 UNL1     0.2126
     48 H         1.19776   -1.856243   -0.365671 H        1 UNL1     0.2101
     49 H         -2.031402   0.957108   -0.871396 H        1 UNL1     0.2100
     50 H         -2.702205   -3.305379   -1.197923 H        1 UNL1     0.2102
@<TRIPOS>BOND
     1     1     2    1
     2     1     6    1
     3     2     3    1
     4     3     4    1
     5     3    29    1
     6     3    33    1
     7     4     5    1
     8     5     6    1
     9     5     7    1
    10     5    35    1
    11     7     8    1
    12     8     9   ar
    13     8    13   ar
    14     9    10   ar
    15     9    36    1
    16    10    11   ar
    17    10    26    1
    18    11    12   ar
    19    11    14    1
    20    12    13   ar
    21    12    17    1
    22    13    37    1
    23    14    15    1
    24    14    25    2
    25    15    16    1
    26    15    38    1
    27    15    39    1
    28    16    17    1
    29    16    18    1
    30    16    40    1
    31    18    19   ar
    32    18    23   ar
    33    19    20   ar
    34    19    41    1
    35    20    21   ar
    36    20    42    1
    37    21    22   ar
    38    21    24    1
    39    22    23   ar
    40    22    43    1
    41    23    44    1
    42    24    45    1
    43    26    46    1
    44    27    47    1
    45    28    48    1
    46    29    49    1
    47    30    50    1
    48     1    31    1
    49     1    27    1
    50     2    32    1
    51     2    28    1
    52     4    34    1
    53     4    30    1
