@<TRIPOS>MOLECULE
*****
 50 53 0 0 0
SMALL
GASTEIGER

@<TRIPOS>ATOM
     1 C         1.986075   -0.099475   -0.903556 C.3        1 UNL1     0.1889
     2 C         1.012734   -0.308588   0.287585 C.3        1 UNL1     0.1342
     3 C         1.41208   0.423213   1.578111 C.3        1 UNL1     0.1174
     4 C         2.92828   0.490095   1.777569 C.3        1 UNL1     0.1456
     5 C         3.673152   0.920291   0.500674 C.3        1 UNL1     0.2326
     6 O         3.359781   0.030131   -0.568101 O.3        1 UNL1     -0.3076
     7 O         3.475329   2.304666   0.160535 O.3        1 UNL1     -0.4605
     8 C         2.369522   2.584606   -0.621994 C.ar        1 UNL1     0.1310
     9 C         1.331241   3.45595   -0.275538 C.ar        1 UNL1     0.0226
     10 C         0.259562   3.68715   -1.146142 C.ar        1 UNL1     0.1343
     11 C         0.212172   3.070261   -2.395559 C.ar        1 UNL1     0.1007
     12 C         1.222252   2.166526   -2.735835 C.ar        1 UNL1     0.1389
     13 C         2.298354   1.932202   -1.859178 C.ar        1 UNL1     0.0229
     14 C         -0.852848   3.34277   -3.388345 C.2        1 UNL1     0.1740
     15 C         -0.627995   2.768014   -4.756061 C.3        1 UNL1     0.0520
     16 C         -0.038897   1.372663   -4.601414 C.3        1 UNL1     0.1322
     17 O         1.219187   1.422811   -3.89305 O.3        1 UNL1     -0.4828
     18 C         -1.031492   0.341381   -4.059254 C.ar        1 UNL1     -0.0067
     19 C         -2.299758   0.76799   -3.614596 C.ar        1 UNL1     -0.0516
     20 C         -3.2133   -0.142009   -3.069339 C.ar        1 UNL1     -0.0198
     21 C         -2.868534   -1.477035   -2.956775 C.ar        1 UNL1     0.1169
     22 C         -1.639967   -1.933147   -3.41658 C.ar        1 UNL1     -0.0198
     23 C         -0.733377   -1.026483   -3.978818 C.ar        1 UNL1     -0.0516
     24 O         -3.769328   -2.327354   -2.385873 O.3        1 UNL1     -0.5068
     25 O         -1.825856   4.055856   -3.157586 O.2        1 UNL1     -0.2917
     26 O         -0.72153   4.547583   -0.747773 O.3        1 UNL1     -0.5058
     27 O         1.568705   0.914912   -1.803339 O.3        1 UNL1     -0.3648
     28 O         0.959339   -1.714814   0.591529 O.3        1 UNL1     -0.3841
     29 O         0.787638   1.706738   1.647154 O.3        1 UNL1     -0.3863
     30 O         3.410877   -0.81003   2.180637 O.3        1 UNL1     -0.3829
     31 H         1.953526   -1.018318   -1.499163 H        1 UNL1     0.0937
     32 H         0.0   0.0   0.0 H        1 UNL1     0.0671
     33 H         1.004802   -0.145371   2.425788 H        1 UNL1     0.0649
     34 H         3.168449   1.186686   2.58842 H        1 UNL1     0.0683
     35 H         4.731057   0.763961   0.74619 H        1 UNL1     0.1085
     36 H         1.338126   4.008712   0.657483 H        1 UNL1     0.0691
     37 H         3.071495   1.223113   -2.147168 H        1 UNL1     0.0691
     38 H         0.063742   3.432388   -5.284866 H        1 UNL1     0.0385
     39 H         -1.57759   2.758384   -5.301913 H        1 UNL1     0.0385
     40 H         0.226259   1.019931   -5.607293 H        1 UNL1     0.0789
     41 H         -2.590819   1.812099   -3.68366 H        1 UNL1     0.0623
     42 H         -4.183599   0.201266   -2.719062 H        1 UNL1     0.0654
     43 H         -1.365644   -2.979008   -3.347056 H        1 UNL1     0.0654
     44 H         0.213156   -1.419341   -4.337401 H        1 UNL1     0.0623
     45 H         -3.891112   -2.067529   -1.458308 H        1 UNL1     0.2921
     46 H         -0.552124   4.831399   0.164456 H        1 UNL1     0.2922
     47 H         0.651092   0.767452   -2.071856 H        1 UNL1     0.2126
     48 H         0.406157   -2.129269   -0.098362 H        1 UNL1     0.2101
     49 H         0.798777   2.126641   0.77231 H        1 UNL1     0.2100
     50 H         4.383949   -0.818778   2.067649 H        1 UNL1     0.2102
@<TRIPOS>BOND
     1     1     2    1
     2     1     6    1
     3     2     3    1
     4     3     4    1
     5     3    29    1
     6     3    33    1
     7     4     5    1
     8     5     6    1
     9     5     7    1
    10     5    35    1
    11     7     8    1
    12     8     9   ar
    13     8    13   ar
    14     9    10   ar
    15     9    36    1
    16    10    11   ar
    17    10    26    1
    18    11    12   ar
    19    11    14    1
    20    12    13   ar
    21    12    17    1
    22    13    37    1
    23    14    15    1
    24    14    25    2
    25    15    16    1
    26    15    38    1
    27    15    39    1
    28    16    17    1
    29    16    18    1
    30    16    40    1
    31    18    19   ar
    32    18    23   ar
    33    19    20   ar
    34    19    41    1
    35    20    21   ar
    36    20    42    1
    37    21    22   ar
    38    21    24    1
    39    22    23   ar
    40    22    43    1
    41    23    44    1
    42    24    45    1
    43    26    46    1
    44    27    47    1
    45    28    48    1
    46    29    49    1
    47    30    50    1
    48     1    31    1
    49     1    27    1
    50     2    32    1
    51     2    28    1
    52     4    34    1
    53     4    30    1
