@<TRIPOS>MOLECULE
*****
 50 53 0 0 0
SMALL
GASTEIGER

@<TRIPOS>ATOM
     1 C         -1.633639   1.206576   -0.803868 C.3        1 UNL1     0.1889
     2 C         -0.326005   1.047366   0.017525 C.3        1 UNL1     0.1342
     3 C         -0.424283   1.517237   1.476986 C.3        1 UNL1     0.1174
     4 C         -1.342691   2.729611   1.649597 C.3        1 UNL1     0.1456
     5 C         -2.678841   2.569117   0.901727 C.3        1 UNL1     0.2326
     6 O         -2.435436   2.33385   -0.48329 O.3        1 UNL1     -0.3076
     7 O         -3.5548   1.593963   1.495943 O.3        1 UNL1     -0.4605
     8 C         -3.022808   0.856681   2.538501 C.ar        1 UNL1     0.1310
     9 C         -3.760427   0.248086   3.559692 C.ar        1 UNL1     0.0226
     10 C         -3.129119   -0.494367   4.564738 C.ar        1 UNL1     0.1343
     11 C         -1.745552   -0.666281   4.559579 C.ar        1 UNL1     0.1007
     12 C         -0.994457   -0.029211   3.568225 C.ar        1 UNL1     0.1389
     13 C         -1.62923   0.719461   2.559273 C.ar        1 UNL1     0.0229
     14 C         -1.035145   -1.509572   5.548688 C.2        1 UNL1     0.1740
     15 C         0.416002   -1.762708   5.262953 C.3        1 UNL1     0.0520
     16 C         1.036555   -0.473573   4.742377 C.3        1 UNL1     0.1322
     17 O         0.380545   -0.041842   3.529805 O.3        1 UNL1     -0.4828
     18 C         1.180071   0.61547   5.808263 C.ar        1 UNL1     -0.0067
     19 C         0.837023   1.945579   5.489921 C.ar        1 UNL1     -0.0516
     20 C         1.001034   2.973439   6.426173 C.ar        1 UNL1     -0.0198
     21 C         1.512869   2.685966   7.678855 C.ar        1 UNL1     0.1169
     22 C         1.828449   1.380736   8.033286 C.ar        1 UNL1     -0.0198
     23 C         1.647206   0.349862   7.103497 C.ar        1 UNL1     -0.0516
     24 O         1.694105   3.718572   8.551368 O.3        1 UNL1     -0.5068
     25 O         -1.591104   -2.044938   6.504082 O.2        1 UNL1     -0.2917
     26 O         -3.905765   -1.06155   5.532576 O.3        1 UNL1     -0.5058
     27 O         -2.40521   0.018094   -0.874396 O.3        1 UNL1     -0.3648
     28 O         0.707217   1.825689   -0.614435 O.3        1 UNL1     -0.3841
     29 O         -0.774285   0.430902   2.336932 O.3        1 UNL1     -0.3863
     30 O         -0.671006   3.907375   1.152205 O.3        1 UNL1     -0.3829
     31 H         -1.331352   1.39371   -1.840054 H        1 UNL1     0.0937
     32 H         0.0   0.0   0.0 H        1 UNL1     0.0671
     33 H         0.579334   1.830742   1.796653 H        1 UNL1     0.0649
     34 H         -1.541857   2.89945   2.713499 H        1 UNL1     0.0683
     35 H         -3.146222   3.558729   0.979829 H        1 UNL1     0.1085
     36 H         -4.843409   0.297677   3.588191 H        1 UNL1     0.0691
     37 H         -1.021801   1.206506   1.799464 H        1 UNL1     0.0691
     38 H         0.471889   -2.558911   4.512976 H        1 UNL1     0.0385
     39 H         0.904977   -2.11824   6.176342 H        1 UNL1     0.0385
     40 H         2.062391   -0.711288   4.429852 H        1 UNL1     0.0789
     41 H         0.441906   2.198551   4.510361 H        1 UNL1     0.0623
     42 H         0.74402   3.996945   6.164654 H        1 UNL1     0.0654
     43 H         2.215818   1.142224   9.016631 H        1 UNL1     0.0654
     44 H         1.894222   -0.659589   7.417881 H        1 UNL1     0.0623
     45 H         2.003764   3.355021   9.396742 H        1 UNL1     0.2921
     46 H         -3.815162   -2.026868   5.495648 H        1 UNL1     0.2922
     47 H         -2.795416   -0.179466   -0.011512 H        1 UNL1     0.2126
     48 H         0.256363   2.493821   -1.165854 H        1 UNL1     0.2101
     49 H         -1.169326   0.77179   3.155181 H        1 UNL1     0.2100
     50 H         -0.336839   4.411868   1.922615 H        1 UNL1     0.2102
@<TRIPOS>BOND
     1     1     2    1
     2     1     6    1
     3     2     3    1
     4     3     4    1
     5     3    29    1
     6     3    33    1
     7     4     5    1
     8     5     6    1
     9     5     7    1
    10     5    35    1
    11     7     8    1
    12     8     9   ar
    13     8    13   ar
    14     9    10   ar
    15     9    36    1
    16    10    11   ar
    17    10    26    1
    18    11    12   ar
    19    11    14    1
    20    12    13   ar
    21    12    17    1
    22    13    37    1
    23    14    15    1
    24    14    25    2
    25    15    16    1
    26    15    38    1
    27    15    39    1
    28    16    17    1
    29    16    18    1
    30    16    40    1
    31    18    19   ar
    32    18    23   ar
    33    19    20   ar
    34    19    41    1
    35    20    21   ar
    36    20    42    1
    37    21    22   ar
    38    21    24    1
    39    22    23   ar
    40    22    43    1
    41    23    44    1
    42    24    45    1
    43    26    46    1
    44    27    47    1
    45    28    48    1
    46    29    49    1
    47    30    50    1
    48     1    31    1
    49     1    27    1
    50     2    32    1
    51     2    28    1
    52     4    34    1
    53     4    30    1
