@<TRIPOS>MOLECULE
*****
 50 53 0 0 0
SMALL
GASTEIGER

@<TRIPOS>ATOM
     1 C         -0.37188   -1.347886   1.678008 C.3        1 UNL1     0.1889
     2 C         -0.482875   -0.969122   0.176623 C.3        1 UNL1     0.1342
     3 C         -1.918681   -0.92022   -0.367927 C.3        1 UNL1     0.1174
     4 C         -2.830821   -1.972135   0.26815 C.3        1 UNL1     0.1456
     5 C         -2.692559   -2.024221   1.800643 C.3        1 UNL1     0.2326
     6 O         -1.335118   -2.274266   2.157996 O.3        1 UNL1     -0.3076
     7 O         -3.250609   -0.876455   2.465875 O.3        1 UNL1     -0.4605
     8 C         -3.775235   -1.101664   3.725865 C.ar        1 UNL1     0.1310
     9 C         -4.615431   -2.16418   4.075767 C.ar        1 UNL1     0.0226
     10 C         -5.08228   -2.316225   5.386811 C.ar        1 UNL1     0.1343
     11 C         -4.70063   -1.421967   6.386054 C.ar        1 UNL1     0.1007
     12 C         -3.895165   -0.33373   6.040004 C.ar        1 UNL1     0.1389
     13 C         -3.428028   -0.179583   4.721121 C.ar        1 UNL1     0.0229
     14 C         -5.096212   -1.58254   7.804463 C.2        1 UNL1     0.1740
     15 C         -4.417143   -0.662522   8.776049 C.3        1 UNL1     0.0520
     16 C         -4.315616   0.71792   8.141991 C.3        1 UNL1     0.1322
     17 O         -3.547814   0.665432   6.919373 O.3        1 UNL1     -0.4828
     18 C         -5.660043   1.438648   8.016323 C.ar        1 UNL1     -0.0067
     19 C         -6.016341   2.030413   6.787063 C.ar        1 UNL1     -0.0516
     20 C         -7.216928   2.737656   6.651562 C.ar        1 UNL1     -0.0198
     21 C         -8.064409   2.866252   7.73741 C.ar        1 UNL1     0.1169
     22 C         -7.756927   2.266302   8.95164 C.ar        1 UNL1     -0.0198
     23 C         -6.565143   1.543359   9.082261 C.ar        1 UNL1     -0.0516
     24 O         -9.206788   3.59428   7.578209 O.3        1 UNL1     -0.5068
     25 O         -5.865477   -2.455764   8.19714 O.2        1 UNL1     -0.2917
     26 O         -5.899709   -3.373344   5.662301 O.3        1 UNL1     -0.5058
     27 O         -0.251583   -0.225127   2.536919 O.3        1 UNL1     -0.3648
     28 O         0.234923   -1.949645   -0.595418 O.3        1 UNL1     -0.3841
     29 O         -2.451186   0.402677   -0.275654 O.3        1 UNL1     -0.3863
     30 O         -2.504177   -3.271189   -0.271713 O.3        1 UNL1     -0.3829
     31 H         0.577639   -1.881176   1.796729 H        1 UNL1     0.0937
     32 H         0.0   0.0   0.0 H        1 UNL1     0.0671
     33 H         -1.877344   -1.14376   -1.443121 H        1 UNL1     0.0649
     34 H         -3.875106   -1.769387   0.005925 H        1 UNL1     0.0683
     35 H         -3.267069   -2.913744   2.087988 H        1 UNL1     0.1085
     36 H         -4.902891   -2.924202   3.357538 H        1 UNL1     0.0691
     37 H         -2.803094   0.676831   4.477184 H        1 UNL1     0.0691
     38 H         -3.424361   -1.075357   8.984565 H        1 UNL1     0.0385
     39 H         -4.984841   -0.647216   9.712673 H        1 UNL1     0.0385
     40 H         -3.713932   1.340954   8.81751 H        1 UNL1     0.0789
     41 H         -5.363928   1.951522   5.922318 H        1 UNL1     0.0623
     42 H         -7.474834   3.199563   5.701753 H        1 UNL1     0.0654
     43 H         -8.420576   2.348005   9.804168 H        1 UNL1     0.0654
     44 H         -6.361828   1.078837   10.042327 H        1 UNL1     0.0623
     45 H         -8.960677   4.503834   7.343993 H        1 UNL1     0.2921
     46 H         -5.512691   -3.904062   6.376422 H        1 UNL1     0.2922
     47 H         0.501802   0.320475   2.271233 H        1 UNL1     0.2126
     48 H         1.169627   -1.894584   -0.317876 H        1 UNL1     0.2101
     49 H         -2.001615   0.984321   -0.909192 H        1 UNL1     0.2100
     50 H         -2.734974   -3.268751   -1.223784 H        1 UNL1     0.2102
@<TRIPOS>BOND
     1     1     2    1
     2     1     6    1
     3     2     3    1
     4     3     4    1
     5     3    29    1
     6     3    33    1
     7     4     5    1
     8     5     6    1
     9     5     7    1
    10     5    35    1
    11     7     8    1
    12     8     9   ar
    13     8    13   ar
    14     9    10   ar
    15     9    36    1
    16    10    11   ar
    17    10    26    1
    18    11    12   ar
    19    11    14    1
    20    12    13   ar
    21    12    17    1
    22    13    37    1
    23    14    15    1
    24    14    25    2
    25    15    16    1
    26    15    38    1
    27    15    39    1
    28    16    17    1
    29    16    18    1
    30    16    40    1
    31    18    19   ar
    32    18    23   ar
    33    19    20   ar
    34    19    41    1
    35    20    21   ar
    36    20    42    1
    37    21    22   ar
    38    21    24    1
    39    22    23   ar
    40    22    43    1
    41    23    44    1
    42    24    45    1
    43    26    46    1
    44    27    47    1
    45    28    48    1
    46    29    49    1
    47    30    50    1
    48     1    31    1
    49     1    27    1
    50     2    32    1
    51     2    28    1
    52     4    34    1
    53     4    30    1
