@<TRIPOS>MOLECULE
*****
 50 53 0 0 0
SMALL
GASTEIGER

@<TRIPOS>ATOM
     1 C         1.978915   -0.900162   -0.210732 C.3        1 UNL1     0.1889
     2 C         0.565577   -0.559707   -0.755256 C.3        1 UNL1     0.1342
     3 C         -0.260459   -1.776366   -1.200083 C.3        1 UNL1     0.1174
     4 C         0.597864   -2.882061   -1.819628 C.3        1 UNL1     0.1456
     5 C         1.855715   -3.18941   -0.986734 C.3        1 UNL1     0.2326
     6 O         2.630719   -2.004141   -0.821287 O.3        1 UNL1     -0.3076
     7 O         1.571286   -3.85756   0.255843 O.3        1 UNL1     -0.4605
     8 C         1.320682   -3.037712   1.341464 C.ar        1 UNL1     0.1310
     9 C         2.058788   -3.018382   2.529793 C.ar        1 UNL1     0.0226
     10 C         1.735694   -2.13678   3.568201 C.ar        1 UNL1     0.1343
     11 C         0.680303   -1.235698   3.433882 C.ar        1 UNL1     0.1007
     12 C         -0.089617   -1.273808   2.268311 C.ar        1 UNL1     0.1389
     13 C         0.233818   -2.162167   1.225412 C.ar        1 UNL1     0.0229
     14 C         0.347733   -0.225507   4.464933 C.2        1 UNL1     0.1740
     15 C         -0.667735   0.803202   4.062278 C.3        1 UNL1     0.0520
     16 C         -1.761873   0.112017   3.260353 C.3        1 UNL1     0.1322
     17 O         -1.21543   -0.50734   2.075082 O.3        1 UNL1     -0.4828
     18 C         -2.656056   -0.803681   4.099791 C.ar        1 UNL1     -0.0067
     19 C         -2.963922   -0.443249   5.427768 C.ar        1 UNL1     -0.0516
     20 C         -3.739654   -1.280943   6.237996 C.ar        1 UNL1     -0.0198
     21 C         -4.206264   -2.482433   5.735478 C.ar        1 UNL1     0.1169
     22 C         -3.947873   -2.849332   4.42115 C.ar        1 UNL1     -0.0198
     23 C         -3.187662   -2.003219   3.604921 C.ar        1 UNL1     -0.0516
     24 O         -4.926735   -3.289766   6.565861 O.3        1 UNL1     -0.5068
     25 O         0.909195   -0.162315   5.555461 O.2        1 UNL1     -0.2917
     26 O         2.494469   -2.168935   4.701695 O.3        1 UNL1     -0.5058
     27 O         2.036371   -0.975452   1.204831 O.3        1 UNL1     -0.3648
     28 O         0.712965   0.299955   -1.900667 O.3        1 UNL1     -0.3841
     29 O         -1.084022   -2.248106   -0.13175 O.3        1 UNL1     -0.3863
     30 O         1.005953   -2.478534   -3.14489 O.3        1 UNL1     -0.3829
     31 H         2.623866   -0.051056   -0.462002 H        1 UNL1     0.0937
     32 H         -0.0   0.0   0.0 H        1 UNL1     0.0671
     33 H         -0.958163   -1.44095   -1.9801 H        1 UNL1     0.0649
     34 H         0.005579   -3.797009   -1.931296 H        1 UNL1     0.0683
     35 H         2.437996   -3.864548   -1.626278 H        1 UNL1     0.1085
     36 H         2.924974   -3.654939   2.673454 H        1 UNL1     0.0691
     37 H         -0.381958   -2.172963   0.328642 H        1 UNL1     0.0691
     38 H         -0.152847   1.558314   3.45877 H        1 UNL1     0.0385
     39 H         -1.059104   1.292162   4.960903 H        1 UNL1     0.0385
     40 H         -2.427836   0.897225   2.87765 H        1 UNL1     0.0789
     41 H         -2.601903   0.490297   5.848583 H        1 UNL1     0.0623
     42 H         -3.960239   -0.997421   7.264139 H        1 UNL1     0.0654
     43 H         -4.321037   -3.780951   4.012805 H        1 UNL1     0.0654
     44 H         -3.014046   -2.316487   2.57995 H        1 UNL1     0.0623
     45 H         -4.479242   -3.321597   7.426938 H        1 UNL1     0.2921
     46 H         3.317026   -2.652886   4.526758 H        1 UNL1     0.2922
     47 H         2.637734   -1.682123   1.478398 H        1 UNL1     0.2126
     48 H         0.702276   1.217081   -1.565261 H        1 UNL1     0.2101
     49 H         -0.550328   -2.362229   0.670709 H        1 UNL1     0.2100
     50 H         0.589092   -1.613377   -3.338388 H        1 UNL1     0.2102
@<TRIPOS>BOND
     1     1     2    1
     2     1     6    1
     3     2     3    1
     4     3     4    1
     5     3    29    1
     6     3    33    1
     7     4     5    1
     8     5     6    1
     9     5     7    1
    10     5    35    1
    11     7     8    1
    12     8     9   ar
    13     8    13   ar
    14     9    10   ar
    15     9    36    1
    16    10    11   ar
    17    10    26    1
    18    11    12   ar
    19    11    14    1
    20    12    13   ar
    21    12    17    1
    22    13    37    1
    23    14    15    1
    24    14    25    2
    25    15    16    1
    26    15    38    1
    27    15    39    1
    28    16    17    1
    29    16    18    1
    30    16    40    1
    31    18    19   ar
    32    18    23   ar
    33    19    20   ar
    34    19    41    1
    35    20    21   ar
    36    20    42    1
    37    21    22   ar
    38    21    24    1
    39    22    23   ar
    40    22    43    1
    41    23    44    1
    42    24    45    1
    43    26    46    1
    44    27    47    1
    45    28    48    1
    46    29    49    1
    47    30    50    1
    48     1    31    1
    49     1    27    1
    50     2    32    1
    51     2    28    1
    52     4    34    1
    53     4    30    1
