@<TRIPOS>MOLECULE
*****
 50 53 0 0 0
SMALL
GASTEIGER

@<TRIPOS>ATOM
     1 C         0.593542   -0.27637   2.083778 C.3        1 UNL1     0.1889
     2 C         -0.480287   -0.203946   0.965035 C.3        1 UNL1     0.1342
     3 C         -1.586157   0.835486   1.203986 C.3        1 UNL1     0.1174
     4 C         -1.950997   0.984544   2.683105 C.3        1 UNL1     0.1456
     5 C         -0.710871   1.099564   3.588214 C.3        1 UNL1     0.2326
     6 O         0.131703   -0.03592   3.40487 O.3        1 UNL1     -0.3076
     7 O         -0.013077   2.350486   3.448219 O.3        1 UNL1     -0.4605
     8 C         0.613414   2.825832   4.586236 C.ar        1 UNL1     0.1310
     9 C         -0.028022   3.167097   5.781811 C.ar        1 UNL1     0.0226
     10 C         0.698231   3.624685   6.887737 C.ar        1 UNL1     0.1343
     11 C         2.087403   3.729574   6.832601 C.ar        1 UNL1     0.1007
     12 C         2.735176   3.430804   5.630973 C.ar        1 UNL1     0.1389
     13 C         2.004446   2.973245   4.518272 C.ar        1 UNL1     0.0229
     14 C         2.911831   4.127206   7.997231 C.2        1 UNL1     0.1740
     15 C         4.394478   3.971705   7.826571 C.3        1 UNL1     0.0520
     16 C         4.765836   4.410591   6.416809 C.3        1 UNL1     0.1322
     17 O         4.08554   3.601651   5.431983 O.3        1 UNL1     -0.4828
     18 C         4.647097   5.919607   6.189879 C.ar        1 UNL1     -0.0067
     19 C         5.451975   6.798681   6.94328 C.ar        1 UNL1     -0.0516
     20 C         5.334678   8.185787   6.794481 C.ar        1 UNL1     -0.0198
     21 C         4.413177   8.705244   5.902951 C.ar        1 UNL1     0.1169
     22 C         3.629984   7.864664   5.122647 C.ar        1 UNL1     -0.0198
     23 C         3.760084   6.477278   5.257889 C.ar        1 UNL1     -0.0516
     24 O         4.30057   10.061544   5.812554 O.3        1 UNL1     -0.5068
     25 O         2.436282   4.486859   9.071003 O.2        1 UNL1     -0.2917
     26 O         0.012446   3.941998   8.023781 O.3        1 UNL1     -0.5058
     27 O         1.763543   0.471779   1.793676 O.3        1 UNL1     -0.3648
     28 O         -1.117304   -1.490778   0.860255 O.3        1 UNL1     -0.3841
     29 O         -1.25294   2.081095   0.587904 O.3        1 UNL1     -0.3863
     30 O         -2.723823   -0.162628   3.098346 O.3        1 UNL1     -0.3829
     31 H         0.939475   -1.315215   2.118566 H        1 UNL1     0.0937
     32 H         0.0   0.0   0.0 H        1 UNL1     0.0671
     33 H         -2.49118   0.487141   0.686967 H        1 UNL1     0.0649
     34 H         -2.585221   1.866633   2.824806 H        1 UNL1     0.0683
     35 H         -1.11833   1.033561   4.604826 H        1 UNL1     0.1085
     36 H         -1.099427   3.05445   5.906399 H        1 UNL1     0.0691
     37 H         2.532268   2.748358   3.593976 H        1 UNL1     0.0691
     38 H         4.637585   2.916151   7.98853 H        1 UNL1     0.0385
     39 H         4.907898   4.562432   8.592875 H        1 UNL1     0.0385
     40 H         5.830033   4.178294   6.275235 H        1 UNL1     0.0789
     41 H         6.176381   6.415993   7.656328 H        1 UNL1     0.0623
     42 H         5.952621   8.853426   7.38981 H        1 UNL1     0.0654
     43 H         2.915825   8.260675   4.410564 H        1 UNL1     0.0654
     44 H         3.139767   5.850291   4.624692 H        1 UNL1     0.0623
     45 H         4.675248   10.454717   6.617382 H        1 UNL1     0.2921
     46 H         0.473592   3.573245   8.793701 H        1 UNL1     0.2922
     47 H         1.663549   1.382963   2.102877 H        1 UNL1     0.2126
     48 H         -2.073019   -1.321751   0.751763 H        1 UNL1     0.2101
     49 H         -0.874719   2.684572   1.247114 H        1 UNL1     0.2100
     50 H         -2.131846   -0.758499   3.602541 H        1 UNL1     0.2102
@<TRIPOS>BOND
     1     1     2    1
     2     1     6    1
     3     2     3    1
     4     3     4    1
     5     3    29    1
     6     3    33    1
     7     4     5    1
     8     5     6    1
     9     5     7    1
    10     5    35    1
    11     7     8    1
    12     8     9   ar
    13     8    13   ar
    14     9    10   ar
    15     9    36    1
    16    10    11   ar
    17    10    26    1
    18    11    12   ar
    19    11    14    1
    20    12    13   ar
    21    12    17    1
    22    13    37    1
    23    14    15    1
    24    14    25    2
    25    15    16    1
    26    15    38    1
    27    15    39    1
    28    16    17    1
    29    16    18    1
    30    16    40    1
    31    18    19   ar
    32    18    23   ar
    33    19    20   ar
    34    19    41    1
    35    20    21   ar
    36    20    42    1
    37    21    22   ar
    38    21    24    1
    39    22    23   ar
    40    22    43    1
    41    23    44    1
    42    24    45    1
    43    26    46    1
    44    27    47    1
    45    28    48    1
    46    29    49    1
    47    30    50    1
    48     1    31    1
    49     1    27    1
    50     2    32    1
    51     2    28    1
    52     4    34    1
    53     4    30    1
