@<TRIPOS>MOLECULE
*****
 50 53 0 0 0
SMALL
GASTEIGER

@<TRIPOS>ATOM
     1 C         -0.324872   -1.365986   1.673124 C.3        1 UNL1     0.1889
     2 C         -0.461308   -0.979729   0.17575 C.3        1 UNL1     0.1342
     3 C         -1.9042   -0.956033   -0.351475 C.3        1 UNL1     0.1174
     4 C         -2.787523   -2.030129   0.288192 C.3        1 UNL1     0.1456
     5 C         -2.629971   -2.089439   1.81856 C.3        1 UNL1     0.2326
     6 O         -1.263645   -2.314581   2.158168 O.3        1 UNL1     -0.3076
     7 O         -3.202823   -0.957443   2.498079 O.3        1 UNL1     -0.4605
     8 C         -3.717981   -1.203739   3.758031 C.ar        1 UNL1     0.1310
     9 C         -4.539794   -2.282844   4.100748 C.ar        1 UNL1     0.0226
     10 C         -4.998091   -2.455603   5.412244 C.ar        1 UNL1     0.1343
     11 C         -4.625841   -1.565725   6.418915 C.ar        1 UNL1     0.1007
     12 C         -3.839139   -0.461488   6.080471 C.ar        1 UNL1     0.1389
     13 C         -3.380624   -0.286543   4.761157 C.ar        1 UNL1     0.0229
     14 C         -5.012247   -1.74699   7.837361 C.2        1 UNL1     0.1740
     15 C         -4.34315   -0.826401   8.815306 C.3        1 UNL1     0.0520
     16 C         -4.266211   0.561877   8.195047 C.3        1 UNL1     0.1322
     17 O         -3.503386   0.533962   6.968512 O.3        1 UNL1     -0.4828
     18 C         -5.622332   1.262644   8.082856 C.ar        1 UNL1     -0.0067
     19 C         -5.69782   2.531453   7.472415 C.ar        1 UNL1     -0.0516
     20 C         -6.914075   3.220528   7.395853 C.ar        1 UNL1     -0.0198
     21 C         -8.05796   2.656046   7.93131 C.ar        1 UNL1     0.1169
     22 C         -8.021935   1.393539   8.508907 C.ar        1 UNL1     -0.0198
     23 C         -6.809403   0.696264   8.569138 C.ar        1 UNL1     -0.0516
     24 O         -9.216716   3.373091   7.871873 O.3        1 UNL1     -0.5068
     25 O         -5.765904   -2.63616   8.224481 O.2        1 UNL1     -0.2917
     26 O         -5.797571   -3.528194   5.680507 O.3        1 UNL1     -0.5058
     27 O         -0.216749   -0.246673   2.53813 O.3        1 UNL1     -0.3648
     28 O         0.266638   -1.940622   -0.611323 O.3        1 UNL1     -0.3841
     29 O         -2.461844   0.355306   -0.243978 O.3        1 UNL1     -0.3863
     30 O         -2.441502   -3.318831   -0.264263 O.3        1 UNL1     -0.3829
     31 H         0.636444   -1.88092   1.777021 H        1 UNL1     0.0937
     32 H         0.0   0.0   0.0 H        1 UNL1     0.0671
     33 H         -1.871248   -1.171677   -1.428569 H        1 UNL1     0.0649
     34 H         -3.8387   -1.846625   0.039686 H        1 UNL1     0.0683
     35 H         -3.183156   -2.992143   2.106641 H        1 UNL1     0.1085
     36 H         -4.818659   -3.039904   3.376031 H        1 UNL1     0.0691
     37 H         -2.770323   0.582032   4.523244 H        1 UNL1     0.0691
     38 H         -3.343064   -1.225701   9.015091 H        1 UNL1     0.0385
     39 H         -4.906648   -0.829594   9.754581 H        1 UNL1     0.0385
     40 H         -3.671217   1.187345   8.874232 H        1 UNL1     0.0789
     41 H         -4.812395   3.000012   7.052742 H        1 UNL1     0.0623
     42 H         -6.957062   4.203469   6.933262 H        1 UNL1     0.0654
     43 H         -8.914705   0.935694   8.91787 H        1 UNL1     0.0654
     44 H         -6.819979   -0.292342   9.017906 H        1 UNL1     0.0623
     45 H         -9.098749   4.18956   8.383908 H        1 UNL1     0.2921
     46 H         -5.410214   -4.047871   6.40252 H        1 UNL1     0.2922
     47 H         0.512016   0.324251   2.257405 H        1 UNL1     0.2126
     48 H         1.211598   -1.819856   -0.396387 H        1 UNL1     0.2101
     49 H         -2.031797   0.949876   -0.879069 H        1 UNL1     0.2100
     50 H         -2.704377   -3.322737   -1.207976 H        1 UNL1     0.2102
@<TRIPOS>BOND
     1     1     2    1
     2     1     6    1
     3     2     3    1
     4     3     4    1
     5     3    29    1
     6     3    33    1
     7     4     5    1
     8     5     6    1
     9     5     7    1
    10     5    35    1
    11     7     8    1
    12     8     9   ar
    13     8    13   ar
    14     9    10   ar
    15     9    36    1
    16    10    11   ar
    17    10    26    1
    18    11    12   ar
    19    11    14    1
    20    12    13   ar
    21    12    17    1
    22    13    37    1
    23    14    15    1
    24    14    25    2
    25    15    16    1
    26    15    38    1
    27    15    39    1
    28    16    17    1
    29    16    18    1
    30    16    40    1
    31    18    19   ar
    32    18    23   ar
    33    19    20   ar
    34    19    41    1
    35    20    21   ar
    36    20    42    1
    37    21    22   ar
    38    21    24    1
    39    22    23   ar
    40    22    43    1
    41    23    44    1
    42    24    45    1
    43    26    46    1
    44    27    47    1
    45    28    48    1
    46    29    49    1
    47    30    50    1
    48     1    31    1
    49     1    27    1
    50     2    32    1
    51     2    28    1
    52     4    34    1
    53     4    30    1
