@<TRIPOS>MOLECULE
*****
 50 53 0 0 0
SMALL
GASTEIGER

@<TRIPOS>ATOM
     1 C         -0.087409   -1.066344   1.904225 C.3        1 UNL1     0.1889
     2 C         -0.564714   -0.827881   0.4464 C.3        1 UNL1     0.1342
     3 C         -2.067811   -0.544464   0.302042 C.3        1 UNL1     0.1174
     4 C         -2.917555   -1.319099   1.312484 C.3        1 UNL1     0.1456
     5 C         -2.351308   -1.241775   2.742081 C.3        1 UNL1     0.2326
     6 O         -1.00976   -1.724255   2.760272 O.3        1 UNL1     -0.3076
     7 O         -2.493784   0.056994   3.345588 O.3        1 UNL1     -0.4605
     8 C         -2.671432   0.071841   4.717357 C.ar        1 UNL1     0.1310
     9 C         -3.547295   -0.754152   5.430027 C.ar        1 UNL1     0.0226
     10 C         -3.643471   -0.674906   6.824434 C.ar        1 UNL1     0.1343
     11 C         -2.847951   0.216646   7.542852 C.ar        1 UNL1     0.1007
     12 C         -1.999382   1.075224   6.838893 C.ar        1 UNL1     0.1389
     13 C         -1.904791   0.997181   5.436611 C.ar        1 UNL1     0.0229
     14 C         -2.847978   0.283616   9.022605 C.2        1 UNL1     0.1740
     15 C         -1.775141   1.136136   9.63398 C.3        1 UNL1     0.0520
     16 C         -1.622421   2.395566   8.792274 C.3        1 UNL1     0.1322
     17 O         -1.252172   2.063988   7.435792 O.3        1 UNL1     -0.4828
     18 C         -2.803659   3.361855   8.909258 C.ar        1 UNL1     -0.0067
     19 C         -3.376559   3.900204   7.738711 C.ar        1 UNL1     -0.0516
     20 C         -4.426813   4.823013   7.811865 C.ar        1 UNL1     -0.0198
     21 C         -4.907094   5.220195   9.046938 C.ar        1 UNL1     0.1169
     22 C         -4.38591   4.682502   10.216593 C.ar        1 UNL1     -0.0198
     23 C         -3.348042   3.745751   10.143221 C.ar        1 UNL1     -0.0516
     24 O         -5.90523   6.149199   9.079753 O.3        1 UNL1     -0.5068
     25 O         -3.612434   -0.368481   9.728906 O.2        1 UNL1     -0.2917
     26 O         -4.517949   -1.507774   7.459417 O.3        1 UNL1     -0.5058
     27 O         0.461489   0.090193   2.515716 O.3        1 UNL1     -0.3648
     28 O         -0.274904   -2.007057   -0.327074 O.3        1 UNL1     -0.3841
     29 O         -2.323361   0.86132   0.326441 O.3        1 UNL1     -0.3863
     30 O         -2.981918   -2.705494   0.913166 O.3        1 UNL1     -0.3829
     31 H         0.753437   -1.766234   1.847559 H        1 UNL1     0.0937
     32 H         0.0   0.0   0.0 H        1 UNL1     0.0671
     33 H         -2.37787   -0.880072   -0.697434 H        1 UNL1     0.0649
     34 H         -3.94421   -0.936517   1.308953 H        1 UNL1     0.0683
     35 H         -2.957055   -1.962267   3.305854 H        1 UNL1     0.1085
     36 H         -4.151547   -1.506399   4.934925 H        1 UNL1     0.0691
     37 H         -1.23741   1.677541   4.912011 H        1 UNL1     0.0691
     38 H         -0.849751   0.550349   9.639778 H        1 UNL1     0.0385
     39 H         -2.043691   1.36168   10.671665 H        1 UNL1     0.0385
     40 H         -0.757074   2.945392   9.186464 H        1 UNL1     0.0789
     41 H         -3.011285   3.611426   6.757471 H        1 UNL1     0.0623
     42 H         -4.852219   5.239968   6.902365 H        1 UNL1     0.0654
     43 H         -4.764688   4.975214   11.188579 H        1 UNL1     0.0654
     44 H         -2.97189   3.338353   11.0767 H        1 UNL1     0.0623
     45 H         -5.572296   6.971157   8.68446 H        1 UNL1     0.2921
     46 H         -4.041611   -2.032862   8.121835 H        1 UNL1     0.2922
     47 H         1.280004   0.348424   2.069387 H        1 UNL1     0.2126
     48 H         0.697116   -2.100381   -0.341191 H        1 UNL1     0.2101
     49 H         -1.9869   1.272053   -0.485893 H        1 UNL1     0.2100
     50 H         -3.475237   -2.753279   0.068142 H        1 UNL1     0.2102
@<TRIPOS>BOND
     1     1     2    1
     2     1     6    1
     3     2     3    1
     4     3     4    1
     5     3    29    1
     6     3    33    1
     7     4     5    1
     8     5     6    1
     9     5     7    1
    10     5    35    1
    11     7     8    1
    12     8     9   ar
    13     8    13   ar
    14     9    10   ar
    15     9    36    1
    16    10    11   ar
    17    10    26    1
    18    11    12   ar
    19    11    14    1
    20    12    13   ar
    21    12    17    1
    22    13    37    1
    23    14    15    1
    24    14    25    2
    25    15    16    1
    26    15    38    1
    27    15    39    1
    28    16    17    1
    29    16    18    1
    30    16    40    1
    31    18    19   ar
    32    18    23   ar
    33    19    20   ar
    34    19    41    1
    35    20    21   ar
    36    20    42    1
    37    21    22   ar
    38    21    24    1
    39    22    23   ar
    40    22    43    1
    41    23    44    1
    42    24    45    1
    43    26    46    1
    44    27    47    1
    45    28    48    1
    46    29    49    1
    47    30    50    1
    48     1    31    1
    49     1    27    1
    50     2    32    1
    51     2    28    1
    52     4    34    1
    53     4    30    1
