@<TRIPOS>MOLECULE
*****
 50 53 0 0 0
SMALL
GASTEIGER

@<TRIPOS>ATOM
     1 C         1.130548   0.086544   1.866862 C.3        1 UNL1     0.1889
     2 C         -0.14614   -0.261832   1.055296 C.3        1 UNL1     0.1342
     3 C         -1.43202   0.407475   1.564224 C.3        1 UNL1     0.1174
     4 C         -1.460318   0.557329   3.087332 C.3        1 UNL1     0.1456
     5 C         -0.140993   1.116977   3.649951 C.3        1 UNL1     0.2326
     6 O         0.946586   0.280865   3.26142 O.3        1 UNL1     -0.3076
     7 O         0.072602   2.505335   3.336644 O.3        1 UNL1     -0.4605
     8 C         1.249618   3.058925   3.807495 C.ar        1 UNL1     0.1310
     9 C         1.660522   4.381074   3.606543 C.ar        1 UNL1     0.0226
     10 C         2.86562   4.853441   4.139938 C.ar        1 UNL1     0.1343
     11 C         3.678389   4.020859   4.908088 C.ar        1 UNL1     0.1007
     12 C         3.298718   2.687194   5.08121 C.ar        1 UNL1     0.1389
     13 C         2.088247   2.211752   4.542559 C.ar        1 UNL1     0.0229
     14 C         4.919914   4.490712   5.565361 C.2        1 UNL1     0.1740
     15 C         5.547651   3.528576   6.530653 C.3        1 UNL1     0.0520
     16 C         5.453547   2.126932   5.943714 C.3        1 UNL1     0.1322
     17 O         4.074967   1.753164   5.727191 O.3        1 UNL1     -0.4828
     18 C         6.368926   1.901086   4.737978 C.ar        1 UNL1     -0.0067
     19 C         7.747592   1.689888   4.945074 C.ar        1 UNL1     -0.0516
     20 C         8.620005   1.527342   3.862283 C.ar        1 UNL1     -0.0198
     21 C         8.128369   1.58117   2.570298 C.ar        1 UNL1     0.1169
     22 C         6.770598   1.754302   2.335091 C.ar        1 UNL1     -0.0198
     23 C         5.895215   1.898438   3.418136 C.ar        1 UNL1     -0.0516
     24 O         9.013685   1.456544   1.540209 O.3        1 UNL1     -0.5068
     25 O         5.382087   5.618016   5.410226 O.2        1 UNL1     -0.2917
     26 O         3.209258   6.153065   3.906542 O.3        1 UNL1     -0.5058
     27 O         1.900274   1.129289   1.289806 O.3        1 UNL1     -0.3648
     28 O         -0.351146   -1.685537   1.116462 O.3        1 UNL1     -0.3841
     29 O         -1.665482   1.641402   0.882277 O.3        1 UNL1     -0.3863
     30 O         -1.709671   -0.733169   3.685769 O.3        1 UNL1     -0.3829
     31 H         1.783697   -0.791378   1.814627 H        1 UNL1     0.0937
     32 H         0.0   0.0   0.0 H        1 UNL1     0.0671
     33 H         -2.27727   -0.240319   1.292863 H        1 UNL1     0.0649
     34 H         -2.286702   1.21298   3.383325 H        1 UNL1     0.0683
     35 H         -0.251337   1.012401   4.736582 H        1 UNL1     0.1085
     36 H         1.046566   5.093096   3.065986 H        1 UNL1     0.0691
     37 H         1.81593   1.16896   4.690617 H        1 UNL1     0.0691
     38 H         4.996499   3.599371   7.474446 H        1 UNL1     0.0385
     39 H         6.583924   3.831052   6.716194 H        1 UNL1     0.0385
     40 H         5.809554   1.429033   6.713595 H        1 UNL1     0.0789
     41 H         8.159602   1.652674   5.949322 H        1 UNL1     0.0623
     42 H         9.682874   1.377011   4.034686 H        1 UNL1     0.0654
     43 H         6.372755   1.782973   1.327714 H        1 UNL1     0.0654
     44 H         4.83919   2.02139   3.197819 H        1 UNL1     0.0623
     45 H         8.67357   1.957474   0.781192 H        1 UNL1     0.2921
     46 H         2.769256   6.725459   4.554751 H        1 UNL1     0.2922
     47 H         2.841754   0.9098   1.325853 H        1 UNL1     0.2126
     48 H         -1.151954   -1.829855   1.656473 H        1 UNL1     0.2101
     49 H         -0.849283   2.165934   0.860406 H        1 UNL1     0.2100
     50 H         -1.063469   -0.85903   4.411231 H        1 UNL1     0.2102
@<TRIPOS>BOND
     1     1     2    1
     2     1     6    1
     3     2     3    1
     4     3     4    1
     5     3    29    1
     6     3    33    1
     7     4     5    1
     8     5     6    1
     9     5     7    1
    10     5    35    1
    11     7     8    1
    12     8     9   ar
    13     8    13   ar
    14     9    10   ar
    15     9    36    1
    16    10    11   ar
    17    10    26    1
    18    11    12   ar
    19    11    14    1
    20    12    13   ar
    21    12    17    1
    22    13    37    1
    23    14    15    1
    24    14    25    2
    25    15    16    1
    26    15    38    1
    27    15    39    1
    28    16    17    1
    29    16    18    1
    30    16    40    1
    31    18    19   ar
    32    18    23   ar
    33    19    20   ar
    34    19    41    1
    35    20    21   ar
    36    20    42    1
    37    21    22   ar
    38    21    24    1
    39    22    23   ar
    40    22    43    1
    41    23    44    1
    42    24    45    1
    43    26    46    1
    44    27    47    1
    45    28    48    1
    46    29    49    1
    47    30    50    1
    48     1    31    1
    49     1    27    1
    50     2    32    1
    51     2    28    1
    52     4    34    1
    53     4    30    1
