@<TRIPOS>MOLECULE
*****
 50 53 0 0 0
SMALL
GASTEIGER

@<TRIPOS>ATOM
     1 C         -1.58562   -0.625302   1.365873 C.3        1 UNL1     0.1889
     2 C         -0.666258   0.458473   0.741259 C.3        1 UNL1     0.1342
     3 C         0.178241   1.245098   1.755413 C.3        1 UNL1     0.1174
     4 C         -0.547974   1.471332   3.083776 C.3        1 UNL1     0.1456
     5 C         -1.219774   0.191755   3.61456 C.3        1 UNL1     0.2326
     6 O         -2.128333   -0.319527   2.641945 O.3        1 UNL1     -0.3076
     7 O         -0.283259   -0.793575   4.087196 O.3        1 UNL1     -0.4605
     8 C         -0.718535   -1.593161   5.128697 C.ar        1 UNL1     0.1310
     9 C         -1.083861   -1.139386   6.400674 C.ar        1 UNL1     0.0226
     10 C         -1.529559   -2.028538   7.385897 C.ar        1 UNL1     0.1343
     11 C         -1.643492   -3.391465   7.115179 C.ar        1 UNL1     0.1007
     12 C         -1.242695   -3.861883   5.861842 C.ar        1 UNL1     0.1389
     13 C         -0.792075   -2.967985   4.872237 C.ar        1 UNL1     0.0229
     14 C         -2.187684   -4.363656   8.091321 C.2        1 UNL1     0.1740
     15 C         -2.447016   -5.742353   7.558884 C.3        1 UNL1     0.0520
     16 C         -1.303561   -6.122407   6.628278 C.3        1 UNL1     0.1322
     17 O         -1.210976   -5.195072   5.5244 O.3        1 UNL1     -0.4828
     18 C         0.019994   -6.381118   7.352153 C.ar        1 UNL1     -0.0067
     19 C         1.106682   -6.923409   6.635742 C.ar        1 UNL1     -0.0516
     20 C         2.315804   -7.216345   7.27775 C.ar        1 UNL1     -0.0198
     21 C         2.448104   -6.978978   8.634209 C.ar        1 UNL1     0.1169
     22 C         1.407199   -6.414496   9.359962 C.ar        1 UNL1     -0.0198
     23 C         0.204227   -6.104308   8.714441 C.ar        1 UNL1     -0.0516
     24 O         3.627573   -7.312104   9.232774 O.3        1 UNL1     -0.5068
     25 O         -2.491322   -4.066717   9.24376 O.2        1 UNL1     -0.2917
     26 O         -1.869503   -1.522007   8.606327 O.3        1 UNL1     -0.5058
     27 O         -1.02598   -1.92858   1.33337 O.3        1 UNL1     -0.3648
     28 O         -1.491363   1.408858   0.042205 O.3        1 UNL1     -0.3841
     29 O         1.462504   0.641082   1.922639 O.3        1 UNL1     -0.3863
     30 O         -1.559591   2.486184   2.903786 O.3        1 UNL1     -0.3829
     31 H         -2.469095   -0.695077   0.721915 H        1 UNL1     0.0937
     32 H         0.0   0.0   0.0 H        1 UNL1     0.0671
     33 H         0.376241   2.238128   1.32832 H        1 UNL1     0.0649
     34 H         0.154862   1.848953   3.834658 H        1 UNL1     0.0683
     35 H         -1.822974   0.541579   4.461703 H        1 UNL1     0.1085
     36 H         -1.070898   -0.085349   6.655544 H        1 UNL1     0.0691
     37 H         -0.484845   -3.359595   3.904898 H        1 UNL1     0.0691
     38 H         -3.401175   -5.715922   7.021846 H        1 UNL1     0.0385
     39 H         -2.546317   -6.438615   8.398609 H        1 UNL1     0.0385
     40 H         -1.571123   -7.079746   6.16091 H        1 UNL1     0.0789
     41 H         1.02498   -7.127417   5.57209 H        1 UNL1     0.0623
     42 H         3.142426   -7.645344   6.716798 H        1 UNL1     0.0654
     43 H         1.505235   -6.210512   10.419533 H        1 UNL1     0.0654
     44 H         -0.584256   -5.6545   9.310102 H        1 UNL1     0.0623
     45 H         4.084993   -7.958269   8.670676 H        1 UNL1     0.2921
     46 H         -2.702921   -1.921503   8.901672 H        1 UNL1     0.2922
     47 H         -0.492616   -2.083774   2.125391 H        1 UNL1     0.2126
     48 H         -1.133962   2.294122   0.247885 H        1 UNL1     0.2101
     49 H         1.382536   -0.159467   2.465337 H        1 UNL1     0.2100
     50 H         -2.42805   2.037768   2.837334 H        1 UNL1     0.2102
@<TRIPOS>BOND
     1     1     2    1
     2     1     6    1
     3     2     3    1
     4     3     4    1
     5     3    29    1
     6     3    33    1
     7     4     5    1
     8     5     6    1
     9     5     7    1
    10     5    35    1
    11     7     8    1
    12     8     9   ar
    13     8    13   ar
    14     9    10   ar
    15     9    36    1
    16    10    11   ar
    17    10    26    1
    18    11    12   ar
    19    11    14    1
    20    12    13   ar
    21    12    17    1
    22    13    37    1
    23    14    15    1
    24    14    25    2
    25    15    16    1
    26    15    38    1
    27    15    39    1
    28    16    17    1
    29    16    18    1
    30    16    40    1
    31    18    19   ar
    32    18    23   ar
    33    19    20   ar
    34    19    41    1
    35    20    21   ar
    36    20    42    1
    37    21    22   ar
    38    21    24    1
    39    22    23   ar
    40    22    43    1
    41    23    44    1
    42    24    45    1
    43    26    46    1
    44    27    47    1
    45    28    48    1
    46    29    49    1
    47    30    50    1
    48     1    31    1
    49     1    27    1
    50     2    32    1
    51     2    28    1
    52     4    34    1
    53     4    30    1
