@<TRIPOS>MOLECULE
*****
 50 53 0 0 0
SMALL
GASTEIGER

@<TRIPOS>ATOM
     1 C         -1.399597   -1.635921   0.368369 C.3        1 UNL1     0.1889
     2 C         -0.697034   -0.316097   0.785995 C.3        1 UNL1     0.1342
     3 C         0.054642   -0.385407   2.124144 C.3        1 UNL1     0.1174
     4 C         -0.637129   -1.289673   3.147313 C.3        1 UNL1     0.1456
     5 C         -1.068283   -2.639679   2.545688 C.3        1 UNL1     0.2326
     6 O         -1.925721   -2.421873   1.427552 O.3        1 UNL1     -0.3076
     7 O         0.035801   -3.514326   2.2502 O.3        1 UNL1     -0.4605
     8 C         0.388753   -4.403766   3.249123 C.ar        1 UNL1     0.1310
     9 C         1.621906   -4.433328   3.909246 C.ar        1 UNL1     0.0226
     10 C         1.878252   -5.364705   4.92252 C.ar        1 UNL1     0.1343
     11 C         0.898247   -6.274545   5.31701 C.ar        1 UNL1     0.1007
     12 C         -0.322653   -6.281658   4.637203 C.ar        1 UNL1     0.1389
     13 C         -0.579221   -5.346797   3.616596 C.ar        1 UNL1     0.0229
     14 C         1.08576   -7.22452   6.437965 C.2        1 UNL1     0.1740
     15 C         -0.142662   -7.970568   6.869174 C.3        1 UNL1     0.0520
     16 C         -0.925097   -8.369968   5.625699 C.3        1 UNL1     0.1322
     17 O         -1.317309   -7.202972   4.869815 O.3        1 UNL1     -0.4828
     18 C         -0.248395   -9.464564   4.797051 C.ar        1 UNL1     -0.0067
     19 C         -0.927901   -10.678328   4.566266 C.ar        1 UNL1     -0.0516
     20 C         -0.319254   -11.717921   3.852994 C.ar        1 UNL1     -0.0198
     21 C         0.968379   -11.559229   3.372741 C.ar        1 UNL1     0.1169
     22 C         1.650656   -10.363364   3.555071 C.ar        1 UNL1     -0.0198
     23 C         1.035311   -9.316856   4.252371 C.ar        1 UNL1     -0.0516
     24 O         1.54273   -12.607316   2.715446 O.3        1 UNL1     -0.5068
     25 O         2.145746   -7.353431   7.044838 O.2        1 UNL1     -0.2917
     26 O         3.101712   -5.341515   5.526005 O.3        1 UNL1     -0.5058
     27 O         -0.638716   -2.41938   -0.537192 O.3        1 UNL1     -0.3648
     28 O         -1.695987   0.71335   0.908617 O.3        1 UNL1     -0.3841
     29 O         1.425937   -0.730717   1.918125 O.3        1 UNL1     -0.3863
     30 O         -1.806648   -0.615778   3.660908 O.3        1 UNL1     -0.3829
     31 H         -2.288661   -1.349496   -0.203998 H        1 UNL1     0.0937
     32 H         0.0   0.0   0.0 H        1 UNL1     0.0671
     33 H         0.069788   0.626287   2.553057 H        1 UNL1     0.0649
     34 H         0.028985   -1.469271   3.998451 H        1 UNL1     0.0683
     35 H         -1.680754   -3.09663   3.333059 H        1 UNL1     0.1085
     36 H         2.404803   -3.716427   3.687333 H        1 UNL1     0.0691
     37 H         -1.537327   -5.373899   3.102016 H        1 UNL1     0.0691
     38 H         -0.729692   -7.301326   7.507169 H        1 UNL1     0.0385
     39 H         0.155854   -8.838447   7.467049 H        1 UNL1     0.0385
     40 H         -1.873123   -8.807717   5.966497 H        1 UNL1     0.0789
     41 H         -1.935919   -10.831017   4.940747 H        1 UNL1     0.0623
     42 H         -0.849135   -12.653483   3.691869 H        1 UNL1     0.0654
     43 H         2.653688   -10.222953   3.170205 H        1 UNL1     0.0654
     44 H         1.593615   -8.392745   4.367093 H        1 UNL1     0.0623
     45 H         1.666307   -12.355734   1.785848 H        1 UNL1     0.2921
     46 H         3.471318   -6.23847   5.542588 H        1 UNL1     0.2922
     47 H         -1.113849   -3.232836   -0.757186 H        1 UNL1     0.2126
     48 H         -2.18025   0.735563   0.060838 H        1 UNL1     0.2101
     49 H         1.517614   -1.694781   1.855121 H        1 UNL1     0.2100
     50 H         -2.574439   -1.212848   3.543791 H        1 UNL1     0.2102
@<TRIPOS>BOND
     1     1     2    1
     2     1     6    1
     3     2     3    1
     4     3     4    1
     5     3    29    1
     6     3    33    1
     7     4     5    1
     8     5     6    1
     9     5     7    1
    10     5    35    1
    11     7     8    1
    12     8     9   ar
    13     8    13   ar
    14     9    10   ar
    15     9    36    1
    16    10    11   ar
    17    10    26    1
    18    11    12   ar
    19    11    14    1
    20    12    13   ar
    21    12    17    1
    22    13    37    1
    23    14    15    1
    24    14    25    2
    25    15    16    1
    26    15    38    1
    27    15    39    1
    28    16    17    1
    29    16    18    1
    30    16    40    1
    31    18    19   ar
    32    18    23   ar
    33    19    20   ar
    34    19    41    1
    35    20    21   ar
    36    20    42    1
    37    21    22   ar
    38    21    24    1
    39    22    23   ar
    40    22    43    1
    41    23    44    1
    42    24    45    1
    43    26    46    1
    44    27    47    1
    45    28    48    1
    46    29    49    1
    47    30    50    1
    48     1    31    1
    49     1    27    1
    50     2    32    1
    51     2    28    1
    52     4    34    1
    53     4    30    1
