@<TRIPOS>MOLECULE
*****
 50 53 0 0 0
SMALL
GASTEIGER

@<TRIPOS>ATOM
     1 C         -1.170444   -1.711045   -0.687889 C.3        1 UNL1     0.1889
     2 C         -0.0125   -0.690272   -0.852602 C.3        1 UNL1     0.1342
     3 C         -0.055165   0.123134   -2.155298 C.3        1 UNL1     0.1174
     4 C         -0.595748   -0.681501   -3.339971 C.3        1 UNL1     0.1456
     5 C         -1.876817   -1.460085   -2.989209 C.3        1 UNL1     0.2326
     6 O         -1.63236   -2.324754   -1.882205 O.3        1 UNL1     -0.3076
     7 O         -3.028026   -0.616285   -2.804714 O.3        1 UNL1     -0.4605
     8 C         -4.229822   -1.120582   -3.268286 C.ar        1 UNL1     0.1310
     9 C         -5.087234   -1.960658   -2.549664 C.ar        1 UNL1     0.0226
     10 C         -6.294375   -2.405904   -3.10145 C.ar        1 UNL1     0.1343
     11 C         -6.685008   -2.002213   -4.377491 C.ar        1 UNL1     0.1007
     12 C         -5.818044   -1.196652   -5.120611 C.ar        1 UNL1     0.1389
     13 C         -4.603099   -0.75124   -4.56658 C.ar        1 UNL1     0.0229
     14 C         -7.987699   -2.374419   -4.976334 C.2        1 UNL1     0.1740
     15 C         -8.33787   -1.673684   -6.256139 C.3        1 UNL1     0.0520
     16 C         -7.081754   -1.575217   -7.110793 C.3        1 UNL1     0.1322
     17 O         -6.052292   -0.82871   -6.425223 O.3        1 UNL1     -0.4828
     18 C         -6.618281   -2.917509   -7.681904 C.ar        1 UNL1     -0.0067
     19 C         -7.553101   -3.960368   -7.845514 C.ar        1 UNL1     -0.0516
     20 C         -7.153543   -5.215243   -8.320493 C.ar        1 UNL1     -0.0198
     21 C         -5.823804   -5.441612   -8.627702 C.ar        1 UNL1     0.1169
     22 C         -4.885655   -4.424464   -8.508855 C.ar        1 UNL1     -0.0198
     23 C         -5.288207   -3.164004   -8.051416 C.ar        1 UNL1     -0.0516
     24 O         -5.465351   -6.687502   -9.051578 O.3        1 UNL1     -0.5068
     25 O         -8.783341   -3.141778   -4.440985 O.2        1 UNL1     -0.2917
     26 O         -7.084983   -3.224457   -2.348792 O.3        1 UNL1     -0.5058
     27 O         -2.245004   -1.224659   0.100486 O.3        1 UNL1     -0.3648
     28 O         1.23483   -1.409042   -0.837031 O.3        1 UNL1     -0.3841
     29 O         -0.750449   1.356331   -1.96052 O.3        1 UNL1     -0.3863
     30 O         0.412664   -1.61917   -3.775368 O.3        1 UNL1     -0.3829
     31 H         -0.768511   -2.549197   -0.108209 H        1 UNL1     0.0937
     32 H         0.0   0.0   0.0 H        1 UNL1     0.0671
     33 H         0.976227   0.406405   -2.407701 H        1 UNL1     0.0649
     34 H         -0.798308   -0.013517   -4.184463 H        1 UNL1     0.0683
     35 H         -2.044536   -2.101168   -3.863716 H        1 UNL1     0.1085
     36 H         -4.86706   -2.26462   -1.532191 H        1 UNL1     0.0691
     37 H         -3.945254   -0.125744   -5.166153 H        1 UNL1     0.0691
     38 H         -8.717717   -0.67983   -5.996336 H        1 UNL1     0.0385
     39 H         -9.13912   -2.225212   -6.75972 H        1 UNL1     0.0385
     40 H         -7.332273   -0.958584   -7.984591 H        1 UNL1     0.0789
     41 H         -8.601096   -3.81068   -7.602714 H        1 UNL1     0.0623
     42 H         -7.881775   -6.014911   -8.431041 H        1 UNL1     0.0654
     43 H         -3.844442   -4.586454   -8.760936 H        1 UNL1     0.0654
     44 H         -4.530568   -2.389511   -7.98079 H        1 UNL1     0.0623
     45 H         -4.796266   -6.593526   -9.748866 H        1 UNL1     0.2921
     46 H         -7.096405   -2.909042   -1.431298 H        1 UNL1     0.2922
     47 H         -2.883154   -0.756385   -0.4557 H        1 UNL1     0.2126
     48 H         1.471495   -1.57875   -1.769191 H        1 UNL1     0.2101
     49 H         -1.275473   1.567269   -2.748967 H        1 UNL1     0.2100
     50 H         1.046322   -1.13706   -4.346122 H        1 UNL1     0.2102
@<TRIPOS>BOND
     1     1     2    1
     2     1     6    1
     3     2     3    1
     4     3     4    1
     5     3    29    1
     6     3    33    1
     7     4     5    1
     8     5     6    1
     9     5     7    1
    10     5    35    1
    11     7     8    1
    12     8     9   ar
    13     8    13   ar
    14     9    10   ar
    15     9    36    1
    16    10    11   ar
    17    10    26    1
    18    11    12   ar
    19    11    14    1
    20    12    13   ar
    21    12    17    1
    22    13    37    1
    23    14    15    1
    24    14    25    2
    25    15    16    1
    26    15    38    1
    27    15    39    1
    28    16    17    1
    29    16    18    1
    30    16    40    1
    31    18    19   ar
    32    18    23   ar
    33    19    20   ar
    34    19    41    1
    35    20    21   ar
    36    20    42    1
    37    21    22   ar
    38    21    24    1
    39    22    23   ar
    40    22    43    1
    41    23    44    1
    42    24    45    1
    43    26    46    1
    44    27    47    1
    45    28    48    1
    46    29    49    1
    47    30    50    1
    48     1    31    1
    49     1    27    1
    50     2    32    1
    51     2    28    1
    52     4    34    1
    53     4    30    1
