@<TRIPOS>MOLECULE
*****
 50 53 0 0 0
SMALL
GASTEIGER

@<TRIPOS>ATOM
     1 C         -0.35033   -1.338476   1.690134 C.3        1 UNL1     0.1889
     2 C         -0.471587   -0.972864   0.186284 C.3        1 UNL1     0.1342
     3 C         -1.91006   -0.943844   -0.352621 C.3        1 UNL1     0.1174
     4 C         -2.8081   -2.000498   0.295549 C.3        1 UNL1     0.1456
     5 C         -2.662999   -2.03892   1.827813 C.3        1 UNL1     0.2326
     6 O         -1.301468   -2.271399   2.181444 O.3        1 UNL1     -0.3076
     7 O         -3.230757   -0.892023   2.486296 O.3        1 UNL1     -0.4605
     8 C         -3.758136   -1.115327   3.745477 C.ar        1 UNL1     0.1310
     9 C         -4.592555   -2.181824   4.097088 C.ar        1 UNL1     0.0226
     10 C         -5.062807   -2.331373   5.407203 C.ar        1 UNL1     0.1343
     11 C         -4.690359   -1.430421   6.403902 C.ar        1 UNL1     0.1007
     12 C         -3.890851   -0.338415   6.055918 C.ar        1 UNL1     0.1389
     13 C         -3.420298   -0.186796   4.737956 C.ar        1 UNL1     0.0229
     14 C         -5.089651   -1.587578   7.821655 C.2        1 UNL1     0.1740
     15 C         -4.419867   -0.65904   8.791581 C.3        1 UNL1     0.0520
     16 C         -4.325217   0.719343   8.152003 C.3        1 UNL1     0.1322
     17 O         -3.552983   0.666705   6.932186 O.3        1 UNL1     -0.4828
     18 C         -5.673886   1.430728   8.018791 C.ar        1 UNL1     -0.0067
     19 C         -6.023513   2.027879   6.790221 C.ar        1 UNL1     -0.0516
     20 C         -7.228162   2.72693   6.6484 C.ar        1 UNL1     -0.0198
     21 C         -8.086402   2.841975   7.727295 C.ar        1 UNL1     0.1169
     22 C         -7.785388   2.236371   8.940338 C.ar        1 UNL1     -0.0198
     23 C         -6.58938   1.521586   9.077096 C.ar        1 UNL1     -0.0516
     24 O         -9.23279   3.562405   7.562441 O.3        1 UNL1     -0.5068
     25 O         -5.85452   -2.464144   8.215473 O.2        1 UNL1     -0.2917
     26 O         -5.874244   -3.392638   5.684457 O.3        1 UNL1     -0.5058
     27 O         -0.23872   -0.207698   2.539647 O.3        1 UNL1     -0.3648
     28 O         0.253653   -1.951649   -0.580992 O.3        1 UNL1     -0.3841
     29 O         -2.456526   0.373897   -0.268562 O.3        1 UNL1     -0.3863
     30 O         -2.469575   -3.30018   -0.235408 O.3        1 UNL1     -0.3829
     31 H         0.605407   -1.860489   1.809085 H        1 UNL1     0.0937
     32 H         0.0   0.0   0.0 H        1 UNL1     0.0671
     33 H         -1.870704   -1.175449   -1.426181 H        1 UNL1     0.0649
     34 H         -3.855593   -1.811163   0.036104 H        1 UNL1     0.0683
     35 H         -3.226626   -2.932305   2.124571 H        1 UNL1     0.1085
     36 H         -4.872635   -2.946739   3.381142 H        1 UNL1     0.0691
     37 H         -2.800148   0.672646   4.492466 H        1 UNL1     0.0691
     38 H         -3.425121   -1.064491   9.005157 H        1 UNL1     0.0385
     39 H         -4.990798   -0.643486   9.726233 H        1 UNL1     0.0385
     40 H         -3.729883   1.349147   8.82687 H        1 UNL1     0.0789
     41 H         -5.36271   1.959609   5.930961 H        1 UNL1     0.0623
     42 H         -7.480951   3.19313   5.699312 H        1 UNL1     0.0654
     43 H         -8.45734   2.307449   9.787297 H        1 UNL1     0.0654
     44 H         -6.391251   1.052292   10.035926 H        1 UNL1     0.0623
     45 H         -8.991483   4.475312   7.336415 H        1 UNL1     0.2921
     46 H         -5.486175   -3.91779   6.402113 H        1 UNL1     0.2922
     47 H         0.497388   0.35248   2.256443 H        1 UNL1     0.2126
     48 H         1.192666   -1.866803   -0.326457 H        1 UNL1     0.2101
     49 H         -2.015904   0.955331   -0.908547 H        1 UNL1     0.2100
     50 H         -2.704286   -3.307799   -1.186495 H        1 UNL1     0.2102
@<TRIPOS>BOND
     1     1     2    1
     2     1     6    1
     3     2     3    1
     4     3     4    1
     5     3    29    1
     6     3    33    1
     7     4     5    1
     8     5     6    1
     9     5     7    1
    10     5    35    1
    11     7     8    1
    12     8     9   ar
    13     8    13   ar
    14     9    10   ar
    15     9    36    1
    16    10    11   ar
    17    10    26    1
    18    11    12   ar
    19    11    14    1
    20    12    13   ar
    21    12    17    1
    22    13    37    1
    23    14    15    1
    24    14    25    2
    25    15    16    1
    26    15    38    1
    27    15    39    1
    28    16    17    1
    29    16    18    1
    30    16    40    1
    31    18    19   ar
    32    18    23   ar
    33    19    20   ar
    34    19    41    1
    35    20    21   ar
    36    20    42    1
    37    21    22   ar
    38    21    24    1
    39    22    23   ar
    40    22    43    1
    41    23    44    1
    42    24    45    1
    43    26    46    1
    44    27    47    1
    45    28    48    1
    46    29    49    1
    47    30    50    1
    48     1    31    1
    49     1    27    1
    50     2    32    1
    51     2    28    1
    52     4    34    1
    53     4    30    1
