@<TRIPOS>MOLECULE
*****
 50 53 0 0 0
SMALL
GASTEIGER

@<TRIPOS>ATOM
     1 C         0.116795   1.764505   1.282063 C.3        1 UNL1     0.1889
     2 C         -0.342698   1.042091   -0.012898 C.3        1 UNL1     0.1342
     3 C         0.122911   1.706601   -1.317543 C.3        1 UNL1     0.1174
     4 C         0.174176   3.233386   -1.220509 C.3        1 UNL1     0.1456
     5 C         0.863541   3.72014   0.067206 C.3        1 UNL1     0.2326
     6 O         0.199905   3.180119   1.207747 O.3        1 UNL1     -0.3076
     7 O         2.284426   3.49148   0.078323 O.3        1 UNL1     -0.4605
     8 C         2.989931   4.007791   -0.993691 C.ar        1 UNL1     0.1310
     9 C         4.053532   3.373657   -1.644788 C.ar        1 UNL1     0.0226
     10 C         4.694904   3.972628   -2.735557 C.ar        1 UNL1     0.1343
     11 C         4.272262   5.210889   -3.217142 C.ar        1 UNL1     0.1007
     12 C         3.238044   5.872413   -2.549638 C.ar        1 UNL1     0.1389
     13 C         2.595048   5.271129   -1.451255 C.ar        1 UNL1     0.0229
     14 C         4.858736   5.851016   -4.417325 C.2        1 UNL1     0.1740
     15 C         4.138106   7.066304   -4.922615 C.3        1 UNL1     0.0520
     16 C         3.699212   7.898578   -3.725681 C.3        1 UNL1     0.1322
     17 O         2.814367   7.141035   -2.871136 O.3        1 UNL1     -0.4828
     18 C         4.856105   8.582906   -2.993549 C.ar        1 UNL1     -0.0067
     19 C         6.138321   7.99708   -3.024271 C.ar        1 UNL1     -0.0516
     20 C         7.207396   8.571465   -2.32633 C.ar        1 UNL1     -0.0198
     21 C         7.005905   9.724961   -1.589664 C.ar        1 UNL1     0.1169
     22 C         5.762725   10.343701   -1.567228 C.ar        1 UNL1     -0.0198
     23 C         4.697915   9.779697   -2.280064 C.ar        1 UNL1     -0.0516
     24 O         8.0615   10.234539   -0.892204 O.3        1 UNL1     -0.5068
     25 O         5.822201   5.39246   -5.025556 O.2        1 UNL1     -0.2917
     26 O         5.726353   3.302136   -3.325589 O.3        1 UNL1     -0.5058
     27 O         1.283414   1.201002   1.860208 O.3        1 UNL1     -0.3648
     28 O         -1.781999   1.0169   -0.034925 O.3        1 UNL1     -0.3841
     29 O         1.355967   1.138696   -1.763851 O.3        1 UNL1     -0.3863
     30 O         -1.171943   3.755549   -1.252122 O.3        1 UNL1     -0.3829
     31 H         -0.664809   1.592819   2.030193 H        1 UNL1     0.0937
     32 H         0.0   0.0   0.0 H        1 UNL1     0.0671
     33 H         -0.610493   1.462247   -2.098652 H        1 UNL1     0.0649
     34 H         0.698518   3.64596   -2.08956 H        1 UNL1     0.0683
     35 H         0.679179   4.801737   0.073322 H        1 UNL1     0.1085
     36 H         4.392524   2.385458   -1.35381 H        1 UNL1     0.0691
     37 H         1.793271   5.807379   -0.948181 H        1 UNL1     0.0691
     38 H         3.274897   6.722322   -5.502332 H        1 UNL1     0.0385
     39 H         4.800758   7.623403   -5.593668 H        1 UNL1     0.0385
     40 H         3.075154   8.71614   -4.11125 H        1 UNL1     0.0789
     41 H         6.320129   7.086517   -3.587717 H        1 UNL1     0.0623
     42 H         8.18857   8.103669   -2.348157 H        1 UNL1     0.0654
     43 H         5.597583   11.255535   -1.005804 H        1 UNL1     0.0654
     44 H         3.743061   10.29557   -2.248853 H        1 UNL1     0.0623
     45 H         7.715463   10.774333   -0.163096 H        1 UNL1     0.2921
     46 H         6.567462   3.712694   -3.069875 H        1 UNL1     0.2922
     47 H         1.057263   0.406667   2.363942 H        1 UNL1     0.2126
     48 H         -2.040676   0.500824   -0.822633 H        1 UNL1     0.2101
     49 H         1.983656   1.844997   -1.985072 H        1 UNL1     0.2100
     50 H         -1.680612   3.238262   -1.91044 H        1 UNL1     0.2102
@<TRIPOS>BOND
     1     1     2    1
     2     1     6    1
     3     2     3    1
     4     3     4    1
     5     3    29    1
     6     3    33    1
     7     4     5    1
     8     5     6    1
     9     5     7    1
    10     5    35    1
    11     7     8    1
    12     8     9   ar
    13     8    13   ar
    14     9    10   ar
    15     9    36    1
    16    10    11   ar
    17    10    26    1
    18    11    12   ar
    19    11    14    1
    20    12    13   ar
    21    12    17    1
    22    13    37    1
    23    14    15    1
    24    14    25    2
    25    15    16    1
    26    15    38    1
    27    15    39    1
    28    16    17    1
    29    16    18    1
    30    16    40    1
    31    18    19   ar
    32    18    23   ar
    33    19    20   ar
    34    19    41    1
    35    20    21   ar
    36    20    42    1
    37    21    22   ar
    38    21    24    1
    39    22    23   ar
    40    22    43    1
    41    23    44    1
    42    24    45    1
    43    26    46    1
    44    27    47    1
    45    28    48    1
    46    29    49    1
    47    30    50    1
    48     1    31    1
    49     1    27    1
    50     2    32    1
    51     2    28    1
    52     4    34    1
    53     4    30    1
