@<TRIPOS>MOLECULE
*****
 50 53 0 0 0
SMALL
GASTEIGER

@<TRIPOS>ATOM
     1 C         -0.331573   -1.327786   1.702307 C.3        1 UNL1     0.1889
     2 C         -0.462314   -0.975383   0.1961 C.3        1 UNL1     0.1342
     3 C         -1.903232   -0.963187   -0.336884 C.3        1 UNL1     0.1174
     4 C         -2.789313   -2.022325   0.323574 C.3        1 UNL1     0.1456
     5 C         -2.637459   -2.047124   1.855465 C.3        1 UNL1     0.2326
     6 O         -1.272485   -2.264928   2.205143 O.3        1 UNL1     -0.3076
     7 O         -3.212415   -0.899919   2.507131 O.3        1 UNL1     -0.4605
     8 C         -3.721721   -1.114958   3.775158 C.ar        1 UNL1     0.1310
     9 C         -4.537719   -2.187968   4.149455 C.ar        1 UNL1     0.0226
     10 C         -4.990274   -2.327904   5.466844 C.ar        1 UNL1     0.1343
     11 C         -4.617884   -1.410258   6.448216 C.ar        1 UNL1     0.1007
     12 C         -3.837085   -0.312155   6.077666 C.ar        1 UNL1     0.1389
     13 C         -3.384351   -0.170239   4.752403 C.ar        1 UNL1     0.0229
     14 C         -4.998105   -1.555582   7.872459 C.2        1 UNL1     0.1740
     15 C         -4.329111   -0.606789   8.823137 C.3        1 UNL1     0.0520
     16 C         -4.260323   0.764932   8.166171 C.3        1 UNL1     0.1322
     17 O         -3.502085   0.707745   6.937808 O.3        1 UNL1     -0.4828
     18 C         -5.619767   1.456982   8.040865 C.ar        1 UNL1     -0.0067
     19 C         -5.999349   2.019197   6.804724 C.ar        1 UNL1     -0.0516
     20 C         -7.214818   2.700384   6.668404 C.ar        1 UNL1     -0.0198
     21 C         -8.054229   2.832263   7.760111 C.ar        1 UNL1     0.1169
     22 C         -7.723434   2.260643   8.981858 C.ar        1 UNL1     -0.0198
     23 C         -6.516506   1.563502   9.113669 C.ar        1 UNL1     -0.0516
     24 O         -9.212138   3.534927   7.599143 O.3        1 UNL1     -0.5068
     25 O         -5.746569   -2.437275   8.285864 O.2        1 UNL1     -0.2917
     26 O         -5.784252   -3.396276   5.766454 O.3        1 UNL1     -0.5058
     27 O         -0.226252   -0.189266   2.542228 O.3        1 UNL1     -0.3648
     28 O         0.268196   -1.954   -0.566376 O.3        1 UNL1     -0.3841
     29 O         -2.460793   0.350401   -0.261081 O.3        1 UNL1     -0.3863
     30 O         -2.441715   -3.323264   -0.198367 O.3        1 UNL1     -0.3829
     31 H         0.629162   -1.840513   1.82137 H        1 UNL1     0.0937
     32 H         0.0   0.0   0.0 H        1 UNL1     0.0671
     33 H         -1.866364   -1.203095   -1.408707 H        1 UNL1     0.0649
     34 H         -3.839493   -1.844181   0.067085 H        1 UNL1     0.0683
     35 H         -3.192038   -2.942941   2.161788 H        1 UNL1     0.1085
     36 H         -4.816201   -2.96502   3.446065 H        1 UNL1     0.0691
     37 H         -2.778584   0.694223   4.489259 H        1 UNL1     0.0691
     38 H         -3.326615   -0.996613   9.029452 H        1 UNL1     0.0385
     39 H         -4.888994   -0.587474   9.764379 H        1 UNL1     0.0385
     40 H         -3.665344   1.410522   8.826273 H        1 UNL1     0.0789
     41 H         -5.35382   1.937246   5.935111 H        1 UNL1     0.0623
     42 H         -7.490811   3.139795   5.713021 H        1 UNL1     0.0654
     43 H         -8.38037   2.344965   9.839316 H        1 UNL1     0.0654
     44 H         -6.294941   1.120603   10.079896 H        1 UNL1     0.0623
     45 H         -8.986398   4.442416   7.337953 H        1 UNL1     0.2921
     46 H         -5.380045   -3.908433   6.484593 H        1 UNL1     0.2922
     47 H         0.516626   0.364455   2.264043 H        1 UNL1     0.2126
     48 H         1.201153   -1.887981   -0.285369 H        1 UNL1     0.2101
     49 H         -2.022089   0.932594   -0.901693 H        1 UNL1     0.2100
     50 H         -2.675119   -3.338663   -1.149681 H        1 UNL1     0.2102
@<TRIPOS>BOND
     1     1     2    1
     2     1     6    1
     3     2     3    1
     4     3     4    1
     5     3    29    1
     6     3    33    1
     7     4     5    1
     8     5     6    1
     9     5     7    1
    10     5    35    1
    11     7     8    1
    12     8     9   ar
    13     8    13   ar
    14     9    10   ar
    15     9    36    1
    16    10    11   ar
    17    10    26    1
    18    11    12   ar
    19    11    14    1
    20    12    13   ar
    21    12    17    1
    22    13    37    1
    23    14    15    1
    24    14    25    2
    25    15    16    1
    26    15    38    1
    27    15    39    1
    28    16    17    1
    29    16    18    1
    30    16    40    1
    31    18    19   ar
    32    18    23   ar
    33    19    20   ar
    34    19    41    1
    35    20    21   ar
    36    20    42    1
    37    21    22   ar
    38    21    24    1
    39    22    23   ar
    40    22    43    1
    41    23    44    1
    42    24    45    1
    43    26    46    1
    44    27    47    1
    45    28    48    1
    46    29    49    1
    47    30    50    1
    48     1    31    1
    49     1    27    1
    50     2    32    1
    51     2    28    1
    52     4    34    1
    53     4    30    1
