@<TRIPOS>MOLECULE
*****
 50 53 0 0 0
SMALL
GASTEIGER

@<TRIPOS>ATOM
     1 C         -0.563724   -1.411555   1.568608 C.3        1 UNL1     0.1889
     2 C         -0.57663   -0.928632   0.093292 C.3        1 UNL1     0.1342
     3 C         -1.977867   -0.709894   -0.4976 C.3        1 UNL1     0.1174
     4 C         -3.008386   -1.709765   0.032876 C.3        1 UNL1     0.1456
     5 C         -2.939713   -1.872699   1.562288 C.3        1 UNL1     0.2326
     6 O         -1.627046   -2.271897   1.950122 O.3        1 UNL1     -0.3076
     7 O         -3.417558   -0.722439   2.283319 O.3        1 UNL1     -0.4605
     8 C         -4.012867   -0.977461   3.505653 C.ar        1 UNL1     0.1310
     9 C         -4.960808   -1.976312   3.752642 C.ar        1 UNL1     0.0226
     10 C         -5.494065   -2.167359   5.032893 C.ar        1 UNL1     0.1343
     11 C         -5.074198   -1.378885   6.103342 C.ar        1 UNL1     0.1007
     12 C         -4.158615   -0.351454   5.860694 C.ar        1 UNL1     0.1389
     13 C         -3.624552   -0.157844   4.57278 C.ar        1 UNL1     0.0229
     14 C         -5.541823   -1.591996   7.492609 C.2        1 UNL1     0.1740
     15 C         -4.822533   -0.804179   8.547841 C.3        1 UNL1     0.0520
     16 C         -4.568476   0.598323   8.012678 C.3        1 UNL1     0.1322
     17 O         -3.758244   0.55215   6.817495 O.3        1 UNL1     -0.4828
     18 C         -5.834749   1.449072   7.888163 C.ar        1 UNL1     -0.0067
     19 C         -6.083571   2.14929   6.689833 C.ar        1 UNL1     -0.0516
     20 C         -7.20756   2.973721   6.559736 C.ar        1 UNL1     -0.0198
     21 C         -8.08437   3.111773   7.620856 C.ar        1 UNL1     0.1169
     22 C         -7.884235   2.408986   8.801904 C.ar        1 UNL1     -0.0198
     23 C         -6.77024   1.570099   8.925758 C.ar        1 UNL1     -0.0516
     24 O         -9.147551   3.952888   7.470612 O.3        1 UNL1     -0.5068
     25 O         -6.403635   -2.412211   7.797589 O.2        1 UNL1     -0.2917
     26 O         -6.415747   -3.158227   5.206867 O.3        1 UNL1     -0.5058
     27 O         -0.377068   -0.362455   2.50527 O.3        1 UNL1     -0.3648
     28 O         0.079947   -1.920946   -0.717217 O.3        1 UNL1     -0.3841
     29 O         -2.390276   0.64865   -0.335085 O.3        1 UNL1     -0.3863
     30 O         -2.779882   -2.996556   -0.581652 O.3        1 UNL1     -0.3829
     31 H         0.327119   -2.038436   1.684784 H        1 UNL1     0.0937
     32 H         0.0   0.0   0.0 H        1 UNL1     0.0671
     33 H         -1.912248   -0.867003   -1.583294 H        1 UNL1     0.0649
     34 H         -4.017806   -1.393154   -0.252134 H        1 UNL1     0.0683
     35 H         -3.604848   -2.720708   1.768093 H        1 UNL1     0.1085
     36 H         -5.286417   -2.658298   2.974829 H        1 UNL1     0.0691
     37 H         -2.9141   0.649741   4.409815 H        1 UNL1     0.0691
     38 H         -3.881364   -1.321217   8.763244 H        1 UNL1     0.0385
     39 H         -5.425123   -0.795481   9.462493 H        1 UNL1     0.0385
     40 H         -3.941011   1.117344   8.749851 H        1 UNL1     0.0789
     41 H         -5.405533   2.064836   5.845569 H        1 UNL1     0.0623
     42 H         -7.382085   3.517758   5.634762 H        1 UNL1     0.0654
     43 H         -8.572686   2.498076   9.633775 H        1 UNL1     0.0654
     44 H         -6.650698   1.027951   9.858834 H        1 UNL1     0.0623
     45 H         -8.809539   4.847828   7.304635 H        1 UNL1     0.2921
     46 H         -6.108566   -3.768468   5.895821 H        1 UNL1     0.2922
     47 H         0.435764   0.123045   2.30664 H        1 UNL1     0.2126
     48 H         1.000263   -1.980229   -0.395913 H        1 UNL1     0.2101
     49 H         -1.857561   1.225698   -0.905193 H        1 UNL1     0.2100
     50 H         -2.963991   -2.909989   -1.539943 H        1 UNL1     0.2102
@<TRIPOS>BOND
     1     1     2    1
     2     1     6    1
     3     2     3    1
     4     3     4    1
     5     3    29    1
     6     3    33    1
     7     4     5    1
     8     5     6    1
     9     5     7    1
    10     5    35    1
    11     7     8    1
    12     8     9   ar
    13     8    13   ar
    14     9    10   ar
    15     9    36    1
    16    10    11   ar
    17    10    26    1
    18    11    12   ar
    19    11    14    1
    20    12    13   ar
    21    12    17    1
    22    13    37    1
    23    14    15    1
    24    14    25    2
    25    15    16    1
    26    15    38    1
    27    15    39    1
    28    16    17    1
    29    16    18    1
    30    16    40    1
    31    18    19   ar
    32    18    23   ar
    33    19    20   ar
    34    19    41    1
    35    20    21   ar
    36    20    42    1
    37    21    22   ar
    38    21    24    1
    39    22    23   ar
    40    22    43    1
    41    23    44    1
    42    24    45    1
    43    26    46    1
    44    27    47    1
    45    28    48    1
    46    29    49    1
    47    30    50    1
    48     1    31    1
    49     1    27    1
    50     2    32    1
    51     2    28    1
    52     4    34    1
    53     4    30    1
