@<TRIPOS>MOLECULE
*****
 50 53 0 0 0
SMALL
GASTEIGER

@<TRIPOS>ATOM
     1 C         -0.383053   -1.350588   1.673316 C.3        1 UNL1     0.1889
     2 C         -0.489201   -0.966617   0.172903 C.3        1 UNL1     0.1342
     3 C         -1.923772   -0.907114   -0.373843 C.3        1 UNL1     0.1174
     4 C         -2.843505   -1.955226   0.257561 C.3        1 UNL1     0.1456
     5 C         -2.708104   -2.012791   1.790113 C.3        1 UNL1     0.2326
     6 O         -1.352842   -2.272379   2.148927 O.3        1 UNL1     -0.3076
     7 O         -3.260084   -0.863573   2.457898 O.3        1 UNL1     -0.4605
     8 C         -3.787761   -1.089207   3.716538 C.ar        1 UNL1     0.1310
     9 C         -4.63485   -2.147607   4.062268 C.ar        1 UNL1     0.0226
     10 C         -5.104377   -2.300575   5.372248 C.ar        1 UNL1     0.1343
     11 C         -4.718661   -1.411514   6.374562 C.ar        1 UNL1     0.1007
     12 C         -3.906151   -0.327194   6.032712 C.ar        1 UNL1     0.1389
     13 C         -3.436313   -0.172104   4.7149 C.ar        1 UNL1     0.0229
     14 C         -5.117119   -1.57375   7.791977 C.2        1 UNL1     0.1740
     15 C         -4.433796   -0.660654   8.767105 C.3        1 UNL1     0.0520
     16 C         -4.323052   0.720958   8.137153 C.3        1 UNL1     0.1322
     17 O         -3.553937   0.667319   6.91541 O.3        1 UNL1     -0.4828
     18 C         -5.662917   1.450181   8.011769 C.ar        1 UNL1     -0.0067
     19 C         -6.015201   2.045208   6.782927 C.ar        1 UNL1     -0.0516
     20 C         -7.21131   2.760057   6.647735 C.ar        1 UNL1     -0.0198
     21 C         -8.058243   2.893023   7.733484 C.ar        1 UNL1     0.1169
     22 C         -7.754821   2.290129   8.947277 C.ar        1 UNL1     -0.0198
     23 C         -6.567612   1.55964   9.077573 C.ar        1 UNL1     -0.0516
     24 O         -9.19601   3.628312   7.574623 O.3        1 UNL1     -0.5068
     25 O         -5.892189   -2.443416   8.18112 O.2        1 UNL1     -0.2917
     26 O         -5.928567   -3.353503   5.643612 O.3        1 UNL1     -0.5058
     27 O         -0.257176   -0.231193   2.535812 O.3        1 UNL1     -0.3648
     28 O         0.223743   -1.949271   -0.600923 O.3        1 UNL1     -0.3841
     29 O         -2.448168   0.418797   -0.278441 O.3        1 UNL1     -0.3863
     30 O         -2.524077   -3.254661   -0.285692 O.3        1 UNL1     -0.3829
     31 H         0.562924   -1.890149   1.791977 H        1 UNL1     0.0937
     32 H         0.0   0.0   0.0 H        1 UNL1     0.0671
     33 H         -1.882053   -1.127667   -1.449638 H        1 UNL1     0.0649
     34 H         -3.88607   -1.745176   -0.005757 H        1 UNL1     0.0683
     35 H         -3.288625   -2.899572   2.073829 H        1 UNL1     0.1085
     36 H         -4.925944   -2.903811   3.341476 H        1 UNL1     0.0691
     37 H         -2.805874   0.681201   4.474255 H        1 UNL1     0.0691
     38 H         -3.443816   -1.080097   8.975753 H        1 UNL1     0.0385
     39 H         -5.002651   -0.644591   9.703013 H        1 UNL1     0.0385
     40 H         -3.718514   1.338394   8.815258 H        1 UNL1     0.0789
     41 H         -5.363078   1.962977   5.918274 H        1 UNL1     0.0623
     42 H         -7.466087   3.224375   5.698257 H        1 UNL1     0.0654
     43 H         -8.418161   2.375253   9.799711 H        1 UNL1     0.0654
     44 H         -6.367445   1.093039   10.037293 H        1 UNL1     0.0623
     45 H         -8.944385   4.534239   7.332347 H        1 UNL1     0.2921
     46 H         -5.544884   -3.889573   6.355531 H        1 UNL1     0.2922
     47 H         0.5026   0.308172   2.275647 H        1 UNL1     0.2126
     48 H         1.15501   -1.913207   -0.309078 H        1 UNL1     0.2101
     49 H         -1.988092   1.001408   -0.903492 H        1 UNL1     0.2100
     50 H         -2.748001   -3.246099   -1.239368 H        1 UNL1     0.2102
@<TRIPOS>BOND
     1     1     2    1
     2     1     6    1
     3     2     3    1
     4     3     4    1
     5     3    29    1
     6     3    33    1
     7     4     5    1
     8     5     6    1
     9     5     7    1
    10     5    35    1
    11     7     8    1
    12     8     9   ar
    13     8    13   ar
    14     9    10   ar
    15     9    36    1
    16    10    11   ar
    17    10    26    1
    18    11    12   ar
    19    11    14    1
    20    12    13   ar
    21    12    17    1
    22    13    37    1
    23    14    15    1
    24    14    25    2
    25    15    16    1
    26    15    38    1
    27    15    39    1
    28    16    17    1
    29    16    18    1
    30    16    40    1
    31    18    19   ar
    32    18    23   ar
    33    19    20   ar
    34    19    41    1
    35    20    21   ar
    36    20    42    1
    37    21    22   ar
    38    21    24    1
    39    22    23   ar
    40    22    43    1
    41    23    44    1
    42    24    45    1
    43    26    46    1
    44    27    47    1
    45    28    48    1
    46    29    49    1
    47    30    50    1
    48     1    31    1
    49     1    27    1
    50     2    32    1
    51     2    28    1
    52     4    34    1
    53     4    30    1
