@<TRIPOS>MOLECULE
*****
 50 53 0 0 0
SMALL
GASTEIGER

@<TRIPOS>ATOM
     1 C         -0.27604   -1.40726   1.647491 C.3        1 UNL1     0.1889
     2 C         -0.450382   -0.986944   0.163281 C.3        1 UNL1     0.1342
     3 C         -1.905438   -0.96145   -0.329289 C.3        1 UNL1     0.1174
     4 C         -2.766122   -2.056726   0.305306 C.3        1 UNL1     0.1456
     5 C         -2.572109   -2.150814   1.829731 C.3        1 UNL1     0.2326
     6 O         -1.196657   -2.373846   2.131816 O.3        1 UNL1     -0.3076
     7 O         -3.13643   -1.039325   2.549074 O.3        1 UNL1     -0.4605
     8 C         -3.620037   -1.318923   3.814569 C.ar        1 UNL1     0.1310
     9 C         -4.417604   -2.417445   4.152853 C.ar        1 UNL1     0.0226
     10 C         -4.844361   -2.623674   5.470142 C.ar        1 UNL1     0.1343
     11 C         -4.463739   -1.748467   6.486499 C.ar        1 UNL1     0.1007
     12 C         -3.701561   -0.625458   6.153758 C.ar        1 UNL1     0.1389
     13 C         -3.27479   -0.416883   4.828694 C.ar        1 UNL1     0.0229
     14 C         -4.816157   -1.96422   7.908964 C.2        1 UNL1     0.1740
     15 C         -4.139892   -1.053082   8.890821 C.3        1 UNL1     0.0520
     16 C         -4.097728   0.34841   8.297524 C.3        1 UNL1     0.1322
     17 O         -3.361632   0.357097   7.054481 O.3        1 UNL1     -0.4828
     18 C         -5.466501   1.029942   8.228991 C.ar        1 UNL1     -0.0067
     19 C         -5.545062   2.391457   7.870775 C.ar        1 UNL1     -0.0516
     20 C         -6.776221   3.057431   7.844533 C.ar        1 UNL1     -0.0198
     21 C         -7.932539   2.376477   8.180775 C.ar        1 UNL1     0.1169
     22 C         -7.891451   1.026731   8.505328 C.ar        1 UNL1     -0.0198
     23 C         -6.662688   0.355815   8.513747 C.ar        1 UNL1     -0.0516
     24 O         -9.108374   3.067718   8.180661 O.3        1 UNL1     -0.5068
     25 O         -5.547513   -2.872692   8.294037 O.2        1 UNL1     -0.2917
     26 O         -5.621334   -3.713839   5.733656 O.3        1 UNL1     -0.5058
     27 O         -0.15513   -0.307814   2.535965 O.3        1 UNL1     -0.3648
     28 O         0.26529   -1.923718   -0.663142 O.3        1 UNL1     -0.3841
     29 O         -2.469267   0.342877   -0.177764 O.3        1 UNL1     -0.3863
     30 O         -2.424504   -3.329522   -0.285437 O.3        1 UNL1     -0.3829
     31 H         0.690928   -1.917429   1.716628 H        1 UNL1     0.0937
     32 H         0.0   0.0   0.0 H        1 UNL1     0.0671
     33 H         -1.896446   -1.151484   -1.41166 H        1 UNL1     0.0649
     34 H         -3.824088   -1.875148   0.085905 H        1 UNL1     0.0683
     35 H         -3.112211   -3.064069   2.109256 H        1 UNL1     0.1085
     36 H         -4.700718   -3.164075   3.419021 H        1 UNL1     0.0691
     37 H         -2.683155   0.465756   4.595438 H        1 UNL1     0.0691
     38 H         -3.1297   -1.440586   9.060757 H        1 UNL1     0.0385
     39 H         -4.682554   -1.083973   9.84179 H        1 UNL1     0.0385
     40 H         -3.49759   0.969362   8.976327 H        1 UNL1     0.0789
     41 H         -4.650735   2.950572   7.611507 H        1 UNL1     0.0623
     42 H         -6.822287   4.110499   7.578192 H        1 UNL1     0.0654
     43 H         -8.792776   0.480057   8.755668 H        1 UNL1     0.0654
     44 H         -6.668974   -0.701206   8.761762 H        1 UNL1     0.0623
     45 H         -9.0676   3.742358   8.877737 H        1 UNL1     0.2921
     46 H         -5.311448   -4.143049   6.546774 H        1 UNL1     0.2922
     47 H         0.562923   0.274876   2.251829 H        1 UNL1     0.2126
     48 H         1.21589   -1.739659   -0.53581 H        1 UNL1     0.2101
     49 H         -2.202774   0.906075   -0.921796 H        1 UNL1     0.2100
     50 H         -2.709538   -3.313185   -1.222561 H        1 UNL1     0.2102
@<TRIPOS>BOND
     1     1     2    1
     2     1     6    1
     3     2     3    1
     4     3     4    1
     5     3    29    1
     6     3    33    1
     7     4     5    1
     8     5     6    1
     9     5     7    1
    10     5    35    1
    11     7     8    1
    12     8     9   ar
    13     8    13   ar
    14     9    10   ar
    15     9    36    1
    16    10    11   ar
    17    10    26    1
    18    11    12   ar
    19    11    14    1
    20    12    13   ar
    21    12    17    1
    22    13    37    1
    23    14    15    1
    24    14    25    2
    25    15    16    1
    26    15    38    1
    27    15    39    1
    28    16    17    1
    29    16    18    1
    30    16    40    1
    31    18    19   ar
    32    18    23   ar
    33    19    20   ar
    34    19    41    1
    35    20    21   ar
    36    20    42    1
    37    21    22   ar
    38    21    24    1
    39    22    23   ar
    40    22    43    1
    41    23    44    1
    42    24    45    1
    43    26    46    1
    44    27    47    1
    45    28    48    1
    46    29    49    1
    47    30    50    1
    48     1    31    1
    49     1    27    1
    50     2    32    1
    51     2    28    1
    52     4    34    1
    53     4    30    1
