@<TRIPOS>MOLECULE
*****
 50 53 0 0 0
SMALL
GASTEIGER

@<TRIPOS>ATOM
     1 C         -0.314762   -2.125543   -0.392169 C.3        1 UNL1     0.1889
     2 C         -0.456164   -0.863231   0.500308 C.3        1 UNL1     0.1342
     3 C         0.14485   -1.002148   1.907415 C.3        1 UNL1     0.1174
     4 C         -0.002225   -2.414589   2.478815 C.3        1 UNL1     0.1456
     5 C         0.393102   -3.504992   1.466342 C.3        1 UNL1     0.2326
     6 O         -0.388098   -3.373762   0.280858 O.3        1 UNL1     -0.3076
     7 O         1.807852   -3.561852   1.208327 O.3        1 UNL1     -0.4605
     8 C         2.603234   -2.765643   2.012656 C.ar        1 UNL1     0.1310
     9 C         2.136541   -1.812952   2.92473 C.ar        1 UNL1     0.0226
     10 C         3.023878   -1.066015   3.708708 C.ar        1 UNL1     0.1343
     11 C         4.399906   -1.270738   3.616645 C.ar        1 UNL1     0.1007
     12 C         4.879791   -2.190143   2.680062 C.ar        1 UNL1     0.1389
     13 C         3.98749   -2.939171   1.890007 C.ar        1 UNL1     0.0229
     14 C         5.377955   -0.569586   4.480336 C.2        1 UNL1     0.1740
     15 C         6.789855   -1.071622   4.402582 C.3        1 UNL1     0.0520
     16 C         7.111002   -1.383062   2.947307 C.3        1 UNL1     0.1322
     17 O         6.217108   -2.393082   2.429731 O.3        1 UNL1     -0.4828
     18 C         7.241317   -0.139021   2.065204 C.ar        1 UNL1     -0.0067
     19 C         8.143526   0.879951   2.433889 C.ar        1 UNL1     -0.0516
     20 C         8.252837   2.05159   1.67542 C.ar        1 UNL1     -0.0198
     21 C         7.461973   2.219099   0.552789 C.ar        1 UNL1     0.1169
     22 C         6.588332   1.219263   0.145458 C.ar        1 UNL1     -0.0198
     23 C         6.49216   0.039662   0.893355 C.ar        1 UNL1     -0.0516
     24 O         7.56867   3.389434   -0.139549 O.3        1 UNL1     -0.5068
     25 O         5.066771   0.312882   5.275886 O.2        1 UNL1     -0.2917
     26 O         2.504386   -0.151906   4.578259 O.3        1 UNL1     -0.5058
     27 O         0.793457   -2.071561   -1.27632 O.3        1 UNL1     -0.3648
     28 O         -1.857033   -0.571903   0.659684 O.3        1 UNL1     -0.3841
     29 O         1.494633   -0.533456   1.930788 O.3        1 UNL1     -0.3863
     30 O         -1.375037   -2.624809   2.874901 O.3        1 UNL1     -0.3829
     31 H         -1.187446   -2.13994   -1.054207 H        1 UNL1     0.0937
     32 H         0.0   0.0   0.0 H        1 UNL1     0.0671
     33 H         -0.409278   -0.329282   2.576678 H        1 UNL1     0.0649
     34 H         0.611156   -2.518932   3.380634 H        1 UNL1     0.0683
     35 H         0.083851   -4.439916   1.950243 H        1 UNL1     0.1085
     36 H         1.076683   -1.646594   3.083307 H        1 UNL1     0.0691
     37 H         4.386468   -3.647857   1.167461 H        1 UNL1     0.0691
     38 H         6.855921   -1.971762   5.022993 H        1 UNL1     0.0385
     39 H         7.462957   -0.31649   4.822687 H        1 UNL1     0.0385
     40 H         8.101505   -1.857488   2.928768 H        1 UNL1     0.0789
     41 H         8.768791   0.776461   3.315923 H        1 UNL1     0.0623
     42 H         8.943669   2.83515   1.976745 H        1 UNL1     0.0654
     43 H         5.975241   1.333698   -0.740507 H        1 UNL1     0.0654
     44 H         5.806945   -0.724878   0.540079 H        1 UNL1     0.0623
     45 H         8.303464   3.901602   0.235257 H        1 UNL1     0.2921
     46 H         1.595762   0.064468   4.315587 H        1 UNL1     0.2922
     47 H         0.600156   -1.483789   -2.019972 H        1 UNL1     0.2126
     48 H         -2.076171   -0.75444   1.593702 H        1 UNL1     0.2101
     49 H         1.889992   -0.709171   2.79947 H        1 UNL1     0.2100
     50 H         -1.660702   -3.493363   2.52316 H        1 UNL1     0.2102
@<TRIPOS>BOND
     1     1     2    1
     2     1     6    1
     3     2     3    1
     4     3     4    1
     5     3    29    1
     6     3    33    1
     7     4     5    1
     8     5     6    1
     9     5     7    1
    10     5    35    1
    11     7     8    1
    12     8     9   ar
    13     8    13   ar
    14     9    10   ar
    15     9    36    1
    16    10    11   ar
    17    10    26    1
    18    11    12   ar
    19    11    14    1
    20    12    13   ar
    21    12    17    1
    22    13    37    1
    23    14    15    1
    24    14    25    2
    25    15    16    1
    26    15    38    1
    27    15    39    1
    28    16    17    1
    29    16    18    1
    30    16    40    1
    31    18    19   ar
    32    18    23   ar
    33    19    20   ar
    34    19    41    1
    35    20    21   ar
    36    20    42    1
    37    21    22   ar
    38    21    24    1
    39    22    23   ar
    40    22    43    1
    41    23    44    1
    42    24    45    1
    43    26    46    1
    44    27    47    1
    45    28    48    1
    46    29    49    1
    47    30    50    1
    48     1    31    1
    49     1    27    1
    50     2    32    1
    51     2    28    1
    52     4    34    1
    53     4    30    1
