@<TRIPOS>MOLECULE
*****
 50 53 0 0 0
SMALL
GASTEIGER

@<TRIPOS>ATOM
     1 C         -0.335905   -1.331504   1.698549 C.3        1 UNL1     0.1889
     2 C         -0.464559   -0.974905   0.19315 C.3        1 UNL1     0.1342
     3 C         -1.904974   -0.958257   -0.341072 C.3        1 UNL1     0.1174
     4 C         -2.793889   -2.017224   0.315842 C.3        1 UNL1     0.1456
     5 C         -2.643449   -2.046334   1.847797 C.3        1 UNL1     0.2326
     6 O         -1.279252   -2.26795   2.198111 O.3        1 UNL1     -0.3076
     7 O         -3.216545   -0.89961   2.501941 O.3        1 UNL1     -0.4605
     8 C         -3.727858   -1.116969   3.768765 C.ar        1 UNL1     0.1310
     9 C         -4.546766   -2.189126   4.13913 C.ar        1 UNL1     0.0226
     10 C         -5.001215   -2.331651   5.45559 C.ar        1 UNL1     0.1343
     11 C         -4.627889   -1.417572   6.439932 C.ar        1 UNL1     0.1007
     12 C         -3.844127   -0.320252   6.07334 C.ar        1 UNL1     0.1389
     13 C         -3.389485   -0.175726   4.749012 C.ar        1 UNL1     0.0229
     14 C         -5.010144   -1.565944   7.863315 C.2        1 UNL1     0.1740
     15 C         -4.340107   -0.621317   8.817401 C.3        1 UNL1     0.0520
     16 C         -4.267383   0.752048   8.164303 C.3        1 UNL1     0.1322
     17 O         -3.507811   0.696501   6.936689 O.3        1 UNL1     -0.4828
     18 C         -5.625083   1.447566   8.039292 C.ar        1 UNL1     -0.0067
     19 C         -6.000711   2.016507   6.805022 C.ar        1 UNL1     -0.0516
     20 C         -7.214434   2.700911   6.669265 C.ar        1 UNL1     -0.0198
     21 C         -8.056008   2.829328   7.75972 C.ar        1 UNL1     0.1169
     22 C         -7.729154   2.251155   8.979442 C.ar        1 UNL1     -0.0198
     23 C         -6.523995   1.550836   9.110594 C.ar        1 UNL1     -0.0516
     24 O         -9.212072   3.535205   7.599547 O.3        1 UNL1     -0.5068
     25 O         -5.761125   -2.447049   8.273397 O.2        1 UNL1     -0.2917
     26 O         -5.798002   -3.399014   5.751308 O.3        1 UNL1     -0.5058
     27 O         -0.228911   -0.195401   2.541525 O.3        1 UNL1     -0.3648
     28 O         0.264548   -1.953085   -0.571228 O.3        1 UNL1     -0.3841
     29 O         -2.45981   0.356312   -0.26234 O.3        1 UNL1     -0.3863
     30 O         -2.448592   -3.317536   -0.20918 O.3        1 UNL1     -0.3829
     31 H         0.623633   -1.846583   1.817124 H        1 UNL1     0.0937
     32 H         0.0   0.0   0.0 H        1 UNL1     0.0671
     33 H         -1.867663   -1.195452   -1.413484 H        1 UNL1     0.0649
     34 H         -3.84346   -1.83618   0.058891 H        1 UNL1     0.0683
     35 H         -3.200201   -2.941764   2.151295 H        1 UNL1     0.1085
     36 H         -4.826192   -2.963594   3.433269 H        1 UNL1     0.0691
     37 H         -2.78142   0.688062   4.488973 H        1 UNL1     0.0691
     38 H         -3.338756   -1.014014   9.023831 H        1 UNL1     0.0385
     39 H         -4.901068   -0.603307   9.758027 H        1 UNL1     0.0385
     40 H         -3.671711   1.394445   8.82689 H        1 UNL1     0.0789
     41 H         -5.35341   1.937362   5.936466 H        1 UNL1     0.0623
     42 H         -7.487362   3.145484   5.71539 H        1 UNL1     0.0654
     43 H         -8.387829   2.332753   9.835829 H        1 UNL1     0.0654
     44 H         -6.305527   1.102839   10.075174 H        1 UNL1     0.0623
     45 H         -8.983686   4.444941   7.348673 H        1 UNL1     0.2921
     46 H         -5.396521   -3.913301   6.469455 H        1 UNL1     0.2922
     47 H         0.513698   0.358879   2.263741 H        1 UNL1     0.2126
     48 H         1.200167   -1.87808   -0.301555 H        1 UNL1     0.2101
     49 H         -2.01942   0.939193   -0.901166 H        1 UNL1     0.2100
     50 H         -2.681183   -3.329962   -1.160736 H        1 UNL1     0.2102
@<TRIPOS>BOND
     1     1     2    1
     2     1     6    1
     3     2     3    1
     4     3     4    1
     5     3    29    1
     6     3    33    1
     7     4     5    1
     8     5     6    1
     9     5     7    1
    10     5    35    1
    11     7     8    1
    12     8     9   ar
    13     8    13   ar
    14     9    10   ar
    15     9    36    1
    16    10    11   ar
    17    10    26    1
    18    11    12   ar
    19    11    14    1
    20    12    13   ar
    21    12    17    1
    22    13    37    1
    23    14    15    1
    24    14    25    2
    25    15    16    1
    26    15    38    1
    27    15    39    1
    28    16    17    1
    29    16    18    1
    30    16    40    1
    31    18    19   ar
    32    18    23   ar
    33    19    20   ar
    34    19    41    1
    35    20    21   ar
    36    20    42    1
    37    21    22   ar
    38    21    24    1
    39    22    23   ar
    40    22    43    1
    41    23    44    1
    42    24    45    1
    43    26    46    1
    44    27    47    1
    45    28    48    1
    46    29    49    1
    47    30    50    1
    48     1    31    1
    49     1    27    1
    50     2    32    1
    51     2    28    1
    52     4    34    1
    53     4    30    1
