@<TRIPOS>MOLECULE
*****
 50 53 0 0 0
SMALL
GASTEIGER

@<TRIPOS>ATOM
     1 C         -1.215505   -0.324293   1.785549 C.3        1 UNL1     0.1889
     2 C         0.114564   -0.448366   0.994688 C.3        1 UNL1     0.1342
     3 C         0.63682   -1.884919   0.839674 C.3        1 UNL1     0.1174
     4 C         0.339609   -2.759429   2.060336 C.3        1 UNL1     0.1456
     5 C         -1.11449   -2.61965   2.546567 C.3        1 UNL1     0.2326
     6 O         -1.398808   -1.254279   2.842867 O.3        1 UNL1     -0.3076
     7 O         -2.075934   -3.218   1.658354 O.3        1 UNL1     -0.4605
     8 C         -1.823263   -3.074506   0.305914 C.ar        1 UNL1     0.1310
     9 C         -1.566544   -4.121328   -0.586027 C.ar        1 UNL1     0.0226
     10 C         -1.338577   -3.874668   -1.945105 C.ar        1 UNL1     0.1343
     11 C         -1.38542   -2.575943   -2.450039 C.ar        1 UNL1     0.1007
     12 C         -1.600211   -1.51863   -1.56193 C.ar        1 UNL1     0.1389
     13 C         -1.82678   -1.766676   -0.194973 C.ar        1 UNL1     0.0229
     14 C         -1.235114   -2.266136   -3.890727 C.2        1 UNL1     0.1740
     15 C         -1.53442   -0.849593   -4.284901 C.3        1 UNL1     0.0520
     16 C         -0.964561   0.07746   -3.220105 C.3        1 UNL1     0.1322
     17 O         -1.559359   -0.194357   -1.931928 O.3        1 UNL1     -0.4828
     18 C         0.564728   0.140206   -3.212159 C.ar        1 UNL1     -0.0067
     19 C         1.286895   -0.43236   -4.279331 C.ar        1 UNL1     -0.0516
     20 C         2.686881   -0.434221   -4.280048 C.ar        1 UNL1     -0.0198
     21 C         3.374811   0.125519   -3.218318 C.ar        1 UNL1     0.1169
     22 C         2.691856   0.726692   -2.169032 C.ar        1 UNL1     -0.0198
     23 C         1.291979   0.745077   -2.176962 C.ar        1 UNL1     -0.0516
     24 O         4.737596   0.071471   -3.235602 O.3        1 UNL1     -0.5068
     25 O         -0.963549   -3.111479   -4.739333 O.2        1 UNL1     -0.2917
     26 O         -1.092865   -4.939541   -2.761963 O.3        1 UNL1     -0.5058
     27 O         -2.362238   -0.243866   0.954092 O.3        1 UNL1     -0.3648
     28 O         1.12855   0.303741   1.686696 O.3        1 UNL1     -0.3841
     29 O         0.173459   -2.463838   -0.381916 O.3        1 UNL1     -0.3863
     30 O         1.22689   -2.387016   3.137245 O.3        1 UNL1     -0.3829
     31 H         -1.185615   0.643454   2.298045 H        1 UNL1     0.0937
     32 H         0.0   0.0   -0.0 H        1 UNL1     0.0671
     33 H         1.73039   -1.835546   0.742785 H        1 UNL1     0.0649
     34 H         0.543199   -3.810184   1.826102 H        1 UNL1     0.0683
     35 H         -1.127912   -3.162423   3.500033 H        1 UNL1     0.1085
     36 H         -1.572147   -5.157493   -0.265947 H        1 UNL1     0.0691
     37 H         -1.990487   -0.926084   0.47592 H        1 UNL1     0.0691
     38 H         -2.622678   -0.74833   -4.355369 H        1 UNL1     0.0385
     39 H         -1.107951   -0.65473   -5.274816 H        1 UNL1     0.0385
     40 H         -1.295885   1.095391   -3.466196 H        1 UNL1     0.0789
     41 H         0.770214   -0.886151   -5.120024 H        1 UNL1     0.0623
     42 H         3.232303   -0.889421   -5.103042 H        1 UNL1     0.0654
     43 H         3.220772   1.181289   -1.339877 H        1 UNL1     0.0654
     44 H         0.791105   1.232623   -1.346138 H        1 UNL1     0.0623
     45 H         5.014037   -0.801337   -2.912334 H        1 UNL1     0.2921
     46 H         -0.978866   -5.739622   -2.22504 H        1 UNL1     0.2922
     47 H         -2.279088   -0.855217   0.208978 H        1 UNL1     0.2126
     48 H         1.283945   1.112523   1.161857 H        1 UNL1     0.2101
     49 H         -0.540585   -1.92202   -0.753895 H        1 UNL1     0.2100
     50 H         1.364522   -3.176216   3.701101 H        1 UNL1     0.2102
@<TRIPOS>BOND
     1     1     2    1
     2     1     6    1
     3     2     3    1
     4     3     4    1
     5     3    29    1
     6     3    33    1
     7     4     5    1
     8     5     6    1
     9     5     7    1
    10     5    35    1
    11     7     8    1
    12     8     9   ar
    13     8    13   ar
    14     9    10   ar
    15     9    36    1
    16    10    11   ar
    17    10    26    1
    18    11    12   ar
    19    11    14    1
    20    12    13   ar
    21    12    17    1
    22    13    37    1
    23    14    15    1
    24    14    25    2
    25    15    16    1
    26    15    38    1
    27    15    39    1
    28    16    17    1
    29    16    18    1
    30    16    40    1
    31    18    19   ar
    32    18    23   ar
    33    19    20   ar
    34    19    41    1
    35    20    21   ar
    36    20    42    1
    37    21    22   ar
    38    21    24    1
    39    22    23   ar
    40    22    43    1
    41    23    44    1
    42    24    45    1
    43    26    46    1
    44    27    47    1
    45    28    48    1
    46    29    49    1
    47    30    50    1
    48     1    31    1
    49     1    27    1
    50     2    32    1
    51     2    28    1
    52     4    34    1
    53     4    30    1
