@<TRIPOS>MOLECULE
*****
 50 53 0 0 0
SMALL
GASTEIGER

@<TRIPOS>ATOM
     1 C         0.679027   -1.969689   0.655784 C.3        1 UNL1     0.1889
     2 C         -0.241914   -1.052501   -0.193083 C.3        1 UNL1     0.1342
     3 C         -1.746194   -1.27018   0.031018 C.3        1 UNL1     0.1174
     4 C         -2.099321   -2.733632   0.308011 C.3        1 UNL1     0.1456
     5 C         -1.162824   -3.380751   1.344628 C.3        1 UNL1     0.2326
     6 O         0.190469   -3.279027   0.907455 O.3        1 UNL1     -0.3076
     7 O         -1.363461   -2.890979   2.68298 O.3        1 UNL1     -0.4605
     8 C         -1.117864   -3.793626   3.702019 C.ar        1 UNL1     0.1310
     9 C         -1.561465   -5.120086   3.733982 C.ar        1 UNL1     0.0226
     10 C         -1.245352   -5.963307   4.805874 C.ar        1 UNL1     0.1343
     11 C         -0.457145   -5.506995   5.861502 C.ar        1 UNL1     0.1007
     12 C         -0.042667   -4.172457   5.860671 C.ar        1 UNL1     0.1389
     13 C         -0.362869   -3.324049   4.784054 C.ar        1 UNL1     0.0229
     14 C         -0.023122   -6.37859   6.97779 C.2        1 UNL1     0.1740
     15 C         0.99919   -5.787381   7.903479 C.3        1 UNL1     0.0520
     16 C         0.645239   -4.325944   8.141971 C.3        1 UNL1     0.1322
     17 O         0.645028   -3.589015   6.899391 O.3        1 UNL1     -0.4828
     18 C         -0.608244   -4.127245   8.997554 C.ar        1 UNL1     -0.0067
     19 C         -1.608423   -3.233125   8.563498 C.ar        1 UNL1     -0.0516
     20 C         -2.744963   -2.992436   9.34472 C.ar        1 UNL1     -0.0198
     21 C         -2.889213   -3.632604   10.562589 C.ar        1 UNL1     0.1169
     22 C         -1.937568   -4.543932   11.001555 C.ar        1 UNL1     -0.0198
     23 C         -0.809877   -4.798751   10.211975 C.ar        1 UNL1     -0.0516
     24 O         -3.99091   -3.344563   11.313386 O.3        1 UNL1     -0.5068
     25 O         -0.398086   -7.540227   7.113747 O.2        1 UNL1     -0.2917
     26 O         -1.709801   -7.245893   4.776805 O.3        1 UNL1     -0.5058
     27 O         1.155363   -1.351672   1.840666 O.3        1 UNL1     -0.3648
     28 O         0.024261   -1.302163   -1.585752 O.3        1 UNL1     -0.3841
     29 O         -2.24327   -0.381571   1.033725 O.3        1 UNL1     -0.3863
     30 O         -2.015935   -3.482461   -0.924058 O.3        1 UNL1     -0.3829
     31 H         1.582085   -2.14338   0.060471 H        1 UNL1     0.0937
     32 H         0.0   0.0   0.0 H        1 UNL1     0.0671
     33 H         -2.267478   -0.987085   -0.894099 H        1 UNL1     0.0649
     34 H         -3.134422   -2.808564   0.659226 H        1 UNL1     0.0683
     35 H         -1.428892   -4.444765   1.313645 H        1 UNL1     0.1085
     36 H         -2.130444   -5.550894   2.917411 H        1 UNL1     0.0691
     37 H         -0.0291   -2.288906   4.807909 H        1 UNL1     0.0691
     38 H         1.977667   -5.883089   7.420829 H        1 UNL1     0.0385
     39 H         1.01847   -6.365815   8.833436 H        1 UNL1     0.0385
     40 H         1.466464   -3.884606   8.722771 H        1 UNL1     0.0789
     41 H         -1.514259   -2.711254   7.61564 H        1 UNL1     0.0623
     42 H         -3.503464   -2.291714   9.004608 H        1 UNL1     0.0654
     43 H         -2.047927   -5.062124   11.946652 H        1 UNL1     0.0654
     44 H         -0.0917   -5.524657   10.580931 H        1 UNL1     0.0623
     45 H         -3.98115   -2.396135   11.521009 H        1 UNL1     0.2921
     46 H         -0.963731   -7.861872   4.850021 H        1 UNL1     0.2922
     47 H         1.612818   -0.526424   1.627219 H        1 UNL1     0.2126
     48 H         0.961116   -1.071694   -1.737143 H        1 UNL1     0.2101
     49 H         -2.236326   0.529659   0.699951 H        1 UNL1     0.2100
     50 H         -2.714089   -3.151089   -1.526126 H        1 UNL1     0.2102
@<TRIPOS>BOND
     1     1     2    1
     2     1     6    1
     3     2     3    1
     4     3     4    1
     5     3    29    1
     6     3    33    1
     7     4     5    1
     8     5     6    1
     9     5     7    1
    10     5    35    1
    11     7     8    1
    12     8     9   ar
    13     8    13   ar
    14     9    10   ar
    15     9    36    1
    16    10    11   ar
    17    10    26    1
    18    11    12   ar
    19    11    14    1
    20    12    13   ar
    21    12    17    1
    22    13    37    1
    23    14    15    1
    24    14    25    2
    25    15    16    1
    26    15    38    1
    27    15    39    1
    28    16    17    1
    29    16    18    1
    30    16    40    1
    31    18    19   ar
    32    18    23   ar
    33    19    20   ar
    34    19    41    1
    35    20    21   ar
    36    20    42    1
    37    21    22   ar
    38    21    24    1
    39    22    23   ar
    40    22    43    1
    41    23    44    1
    42    24    45    1
    43    26    46    1
    44    27    47    1
    45    28    48    1
    46    29    49    1
    47    30    50    1
    48     1    31    1
    49     1    27    1
    50     2    32    1
    51     2    28    1
    52     4    34    1
    53     4    30    1
