@<TRIPOS>MOLECULE
*****
 50 53 0 0 0
SMALL
GASTEIGER

@<TRIPOS>ATOM
     1 C         -0.566501   -0.596302   -2.023439 C.3        1 UNL1     0.1889
     2 C         0.473098   -0.094961   -0.985252 C.3        1 UNL1     0.1342
     3 C         1.149611   1.236266   -1.346682 C.3        1 UNL1     0.1174
     4 C         1.369759   1.400501   -2.852564 C.3        1 UNL1     0.1456
     5 C         0.120979   1.033888   -3.675064 C.3        1 UNL1     0.2326
     6 O         -0.278327   -0.303243   -3.382655 O.3        1 UNL1     -0.3076
     7 O         -0.950704   1.985701   -3.545183 O.3        1 UNL1     -0.4605
     8 C         -1.218586   2.753425   -4.664275 C.ar        1 UNL1     0.1310
     9 C         -1.412821   2.259084   -5.95857 C.ar        1 UNL1     0.0226
     10 C         -1.696891   3.118565   -7.026512 C.ar        1 UNL1     0.1343
     11 C         -1.817268   4.49235   -6.821419 C.ar        1 UNL1     0.1007
     12 C         -1.584948   5.002021   -5.541166 C.ar        1 UNL1     0.1389
     13 C         -1.296724   4.137876   -4.468035 C.ar        1 UNL1     0.0229
     14 C         -2.198271   5.436824   -7.897039 C.2        1 UNL1     0.1740
     15 C         -2.498757   6.838568   -7.453902 C.3        1 UNL1     0.0520
     16 C         -1.488199   7.233258   -6.385749 C.3        1 UNL1     0.1322
     17 O         -1.571103   6.346075   -5.248602 O.3        1 UNL1     -0.4828
     18 C         -0.071188   7.442228   -6.925319 C.ar        1 UNL1     -0.0067
     19 C         0.850637   6.376131   -6.881844 C.ar        1 UNL1     -0.0516
     20 C         2.16815   6.547291   -7.323235 C.ar        1 UNL1     -0.0198
     21 C         2.577259   7.778916   -7.802354 C.ar        1 UNL1     0.1169
     22 C         1.683538   8.838462   -7.888759 C.ar        1 UNL1     -0.0198
     23 C         0.360977   8.662378   -7.464634 C.ar        1 UNL1     -0.0516
     24 O         3.878103   7.918524   -8.187991 O.3        1 UNL1     -0.5068
     25 O         -2.344643   5.102568   -9.069785 O.2        1 UNL1     -0.2917
     26 O         -1.874359   2.57299   -8.264429 O.3        1 UNL1     -0.5058
     27 O         -1.904788   -0.265144   -1.688613 O.3        1 UNL1     -0.3648
     28 O         1.511772   -1.084655   -0.865387 O.3        1 UNL1     -0.3841
     29 O         0.4457   2.336553   -0.767019 O.3        1 UNL1     -0.3863
     30 O         2.463437   0.553096   -3.266645 O.3        1 UNL1     -0.3829
     31 H         -0.542338   -1.690904   -1.986816 H        1 UNL1     0.0937
     32 H         0.0   0.0   0.0 H        1 UNL1     0.0671
     33 H         2.143265   1.245753   -0.877339 H        1 UNL1     0.0649
     34 H         1.660892   2.432489   -3.077604 H        1 UNL1     0.0683
     35 H         0.476491   1.040829   -4.713063 H        1 UNL1     0.1085
     36 H         -1.387772   1.196248   -6.172749 H        1 UNL1     0.0691
     37 H         -1.118872   4.559795   -3.481198 H        1 UNL1     0.0691
     38 H         -3.518863   6.848426   -7.055388 H        1 UNL1     0.0385
     39 H         -2.464477   7.504788   -8.322668 H        1 UNL1     0.0385
     40 H         -1.797086   8.211722   -5.993681 H        1 UNL1     0.0789
     41 H         0.556623   5.40215   -6.501623 H        1 UNL1     0.0623
     42 H         2.872816   5.72086   -7.27354 H        1 UNL1     0.0654
     43 H         1.989331   9.802923   -8.276336 H        1 UNL1     0.0654
     44 H         -0.313028   9.508644   -7.556266 H        1 UNL1     0.0623
     45 H         4.39955   7.215131   -7.768412 H        1 UNL1     0.2921
     46 H         -1.480242   3.154439   -8.933757 H        1 UNL1     0.2922
     47 H         -2.103361   -0.54709   -0.784769 H        1 UNL1     0.2126
     48 H         1.124744   -1.838996   -0.380711 H        1 UNL1     0.2101
     49 H         -0.443724   2.398097   -1.150335 H        1 UNL1     0.2100
     50 H         3.2852   0.903296   -2.86443 H        1 UNL1     0.2102
@<TRIPOS>BOND
     1     1     2    1
     2     1     6    1
     3     2     3    1
     4     3     4    1
     5     3    29    1
     6     3    33    1
     7     4     5    1
     8     5     6    1
     9     5     7    1
    10     5    35    1
    11     7     8    1
    12     8     9   ar
    13     8    13   ar
    14     9    10   ar
    15     9    36    1
    16    10    11   ar
    17    10    26    1
    18    11    12   ar
    19    11    14    1
    20    12    13   ar
    21    12    17    1
    22    13    37    1
    23    14    15    1
    24    14    25    2
    25    15    16    1
    26    15    38    1
    27    15    39    1
    28    16    17    1
    29    16    18    1
    30    16    40    1
    31    18    19   ar
    32    18    23   ar
    33    19    20   ar
    34    19    41    1
    35    20    21   ar
    36    20    42    1
    37    21    22   ar
    38    21    24    1
    39    22    23   ar
    40    22    43    1
    41    23    44    1
    42    24    45    1
    43    26    46    1
    44    27    47    1
    45    28    48    1
    46    29    49    1
    47    30    50    1
    48     1    31    1
    49     1    27    1
    50     2    32    1
    51     2    28    1
    52     4    34    1
    53     4    30    1
