@<TRIPOS>MOLECULE
*****
 50 53 0 0 0
SMALL
GASTEIGER

@<TRIPOS>ATOM
     1 C         -1.053326   -1.095273   -1.568976 C.3        1 UNL1     0.1889
     2 C         -0.949442   0.067343   -0.545515 C.3        1 UNL1     0.1342
     3 C         -2.104334   0.136893   0.465353 C.3        1 UNL1     0.1174
     4 C         -3.445502   -0.291467   -0.135391 C.3        1 UNL1     0.1456
     5 C         -3.338807   -1.59461   -0.948287 C.3        1 UNL1     0.2326
     6 O         -2.366529   -1.44543   -1.980415 O.3        1 UNL1     -0.3076
     7 O         -3.125336   -2.762139   -0.134268 O.3        1 UNL1     -0.4605
     8 C         -3.674356   -3.940121   -0.608045 C.ar        1 UNL1     0.1310
     9 C         -5.038293   -4.172757   -0.815064 C.ar        1 UNL1     0.0226
     10 C         -5.495746   -5.397379   -1.316003 C.ar        1 UNL1     0.1343
     11 C         -4.597447   -6.41166   -1.644842 C.ar        1 UNL1     0.1007
     12 C         -3.236402   -6.205974   -1.403941 C.ar        1 UNL1     0.1389
     13 C         -2.776919   -4.975492   -0.897759 C.ar        1 UNL1     0.0229
     14 C         -5.018717   -7.693681   -2.255668 C.2        1 UNL1     0.1740
     15 C         -3.908007   -8.574095   -2.748359 C.3        1 UNL1     0.0520
     16 C         -2.769265   -8.523423   -1.739074 C.3        1 UNL1     0.1322
     17 O         -2.276481   -7.173681   -1.589308 O.3        1 UNL1     -0.4828
     18 C         -3.082667   -9.234304   -0.420305 C.ar        1 UNL1     -0.0067
     19 C         -2.053574   -9.426946   0.52419 C.ar        1 UNL1     -0.0516
     20 C         -2.295071   -10.114779   1.7194 C.ar        1 UNL1     -0.0198
     21 C         -3.556671   -10.620081   1.977979 C.ar        1 UNL1     0.1169
     22 C         -4.598754   -10.417392   1.082536 C.ar        1 UNL1     -0.0198
     23 C         -4.362064   -9.71358   -0.104343 C.ar        1 UNL1     -0.0516
     24 O         -3.744846   -11.317271   3.135095 O.3        1 UNL1     -0.5068
     25 O         -6.193696   -8.00438   -2.432798 O.2        1 UNL1     -0.2917
     26 O         -6.838593   -5.560805   -1.493873 O.3        1 UNL1     -0.5058
     27 O         -0.296296   -2.238504   -1.204675 O.3        1 UNL1     -0.3648
     28 O         -0.937719   1.312079   -1.268841 O.3        1 UNL1     -0.3841
     29 O         -1.778083   -0.579515   1.658019 O.3        1 UNL1     -0.3863
     30 O         -3.933333   0.756742   -1.000821 O.3        1 UNL1     -0.3829
     31 H         -0.581261   -0.742293   -2.492361 H        1 UNL1     0.0937
     32 H         0.0   0.0   0.0 H        1 UNL1     0.0671
     33 H         -2.215524   1.185195   0.77587 H        1 UNL1     0.0649
     34 H         -4.187314   -0.421324   0.660381 H        1 UNL1     0.0683
     35 H         -4.315758   -1.680167   -1.440349 H        1 UNL1     0.1085
     36 H         -5.781953   -3.404969   -0.631787 H        1 UNL1     0.0691
     37 H         -1.712454   -4.840912   -0.71805 H        1 UNL1     0.0691
     38 H         -3.58899   -8.190462   -3.723336 H        1 UNL1     0.0385
     39 H         -4.291306   -9.590438   -2.889452 H        1 UNL1     0.0385
     40 H         -1.926129   -9.076814   -2.174275 H        1 UNL1     0.0789
     41 H         -1.052421   -9.047956   0.340588 H        1 UNL1     0.0623
     42 H         -1.490327   -10.267187   2.434363 H        1 UNL1     0.0654
     43 H         -5.594226   -10.795771   1.281975 H        1 UNL1     0.0654
     44 H         -5.201827   -9.564638   -0.77625 H        1 UNL1     0.0623
     45 H         -2.879695   -11.621387   3.454068 H        1 UNL1     0.2921
     46 H         -7.002507   -5.978703   -2.35405 H        1 UNL1     0.2922
     47 H         -0.826004   -2.827975   -0.649883 H        1 UNL1     0.2126
     48 H         -1.870913   1.569785   -1.397179 H        1 UNL1     0.2101
     49 H         -2.173662   -1.465237   1.629609 H        1 UNL1     0.2100
     50 H         -4.176429   1.522185   -0.439827 H        1 UNL1     0.2102
@<TRIPOS>BOND
     1     1     2    1
     2     1     6    1
     3     2     3    1
     4     3     4    1
     5     3    29    1
     6     3    33    1
     7     4     5    1
     8     5     6    1
     9     5     7    1
    10     5    35    1
    11     7     8    1
    12     8     9   ar
    13     8    13   ar
    14     9    10   ar
    15     9    36    1
    16    10    11   ar
    17    10    26    1
    18    11    12   ar
    19    11    14    1
    20    12    13   ar
    21    12    17    1
    22    13    37    1
    23    14    15    1
    24    14    25    2
    25    15    16    1
    26    15    38    1
    27    15    39    1
    28    16    17    1
    29    16    18    1
    30    16    40    1
    31    18    19   ar
    32    18    23   ar
    33    19    20   ar
    34    19    41    1
    35    20    21   ar
    36    20    42    1
    37    21    22   ar
    38    21    24    1
    39    22    23   ar
    40    22    43    1
    41    23    44    1
    42    24    45    1
    43    26    46    1
    44    27    47    1
    45    28    48    1
    46    29    49    1
    47    30    50    1
    48     1    31    1
    49     1    27    1
    50     2    32    1
    51     2    28    1
    52     4    34    1
    53     4    30    1
