@<TRIPOS>MOLECULE
*****
 50 53 0 0 0
SMALL
GASTEIGER

@<TRIPOS>ATOM
     1 C         -0.684689   -1.858916   0.92002 C.3        1 UNL1     0.1889
     2 C         -0.004447   -1.072149   -0.23246 C.3        1 UNL1     0.1342
     3 C         -0.64037   -1.28247   -1.61515 C.3        1 UNL1     0.1174
     4 C         -1.173198   -2.703708   -1.813377 C.3        1 UNL1     0.1456
     5 C         -1.996845   -3.198395   -0.610358 C.3        1 UNL1     0.2326
     6 O         -1.210458   -3.132648   0.577135 O.3        1 UNL1     -0.3076
     7 O         -3.272437   -2.54455   -0.481238 O.3        1 UNL1     -0.4605
     8 C         -4.294366   -3.309209   0.052133 C.ar        1 UNL1     0.1310
     9 C         -4.593043   -4.627551   -0.308513 C.ar        1 UNL1     0.0226
     10 C         -5.640869   -5.325636   0.303566 C.ar        1 UNL1     0.1343
     11 C         -6.401018   -4.729721   1.309 C.ar        1 UNL1     0.1007
     12 C         -6.138676   -3.399896   1.648893 C.ar        1 UNL1     0.1389
     13 C         -5.086742   -2.697315   1.031442 C.ar        1 UNL1     0.0229
     14 C         -7.464886   -5.448708   2.04751 C.2        1 UNL1     0.1740
     15 C         -8.025078   -4.731817   3.240742 C.3        1 UNL1     0.0520
     16 C         -8.172581   -3.257298   2.891468 C.3        1 UNL1     0.1322
     17 O         -6.893189   -2.681422   2.547097 O.3        1 UNL1     -0.4828
     18 C         -9.28877   -2.971399   1.883942 C.ar        1 UNL1     -0.0067
     19 C         -9.650937   -1.636071   1.612007 C.ar        1 UNL1     -0.0516
     20 C         -10.698957   -1.341037   0.731909 C.ar        1 UNL1     -0.0198
     21 C         -11.395808   -2.370223   0.124453 C.ar        1 UNL1     0.1169
     22 C         -11.040868   -3.69446   0.346383 C.ar        1 UNL1     -0.0198
     23 C         -9.980891   -3.989281   1.212169 C.ar        1 UNL1     -0.0516
     24 O         -12.434907   -2.045374   -0.69722 O.3        1 UNL1     -0.5068
     25 O         -7.826686   -6.589556   1.771737 O.2        1 UNL1     -0.2917
     26 O         -5.88109   -6.608377   -0.094498 O.3        1 UNL1     -0.5058
     27 O         -1.620101   -1.087122   1.656312 O.3        1 UNL1     -0.3648
     28 O         1.369055   -1.493829   -0.32402 O.3        1 UNL1     -0.3841
     29 O         -1.624875   -0.280618   -1.878158 O.3        1 UNL1     -0.3863
     30 O         -0.061127   -3.602653   -2.015581 O.3        1 UNL1     -0.3829
     31 H         0.101872   -2.093443   1.645553 H        1 UNL1     0.0937
     32 H         0.0   0.0   0.0 H        1 UNL1     0.0671
     33 H         0.142168   -1.12812   -2.371148 H        1 UNL1     0.0649
     34 H         -1.790458   -2.748993   -2.717445 H        1 UNL1     0.0683
     35 H         -2.164214   -4.261593   -0.823614 H        1 UNL1     0.1085
     36 H         -4.003825   -5.165143   -1.043318 H        1 UNL1     0.0691
     37 H         -4.903663   -1.66259   1.31308 H        1 UNL1     0.0691
     38 H         -7.324658   -4.87293   4.070818 H        1 UNL1     0.0385
     39 H         -8.980889   -5.189228   3.518191 H        1 UNL1     0.0385
     40 H         -8.470199   -2.735067   3.810826 H        1 UNL1     0.0789
     41 H         -9.125429   -0.810568   2.083214 H        1 UNL1     0.0623
     42 H         -10.976476   -0.307596   0.539574 H        1 UNL1     0.0654
     43 H         -11.570102   -4.507707   -0.135749 H        1 UNL1     0.0654
     44 H         -9.723918   -5.034573   1.354208 H        1 UNL1     0.0623
     45 H         -13.128949   -1.626337   -0.162963 H        1 UNL1     0.2921
     46 H         -5.858711   -7.19614   0.677153 H        1 UNL1     0.2922
     47 H         -1.202343   -0.278809   1.984895 H        1 UNL1     0.2126
     48 H         1.83037   -1.113839   0.448332 H        1 UNL1     0.2101
     49 H         -1.193877   0.533433   -2.183699 H        1 UNL1     0.2100
     50 H         0.35413   -3.380125   -2.874507 H        1 UNL1     0.2102
@<TRIPOS>BOND
     1     1     2    1
     2     1     6    1
     3     2     3    1
     4     3     4    1
     5     3    29    1
     6     3    33    1
     7     4     5    1
     8     5     6    1
     9     5     7    1
    10     5    35    1
    11     7     8    1
    12     8     9   ar
    13     8    13   ar
    14     9    10   ar
    15     9    36    1
    16    10    11   ar
    17    10    26    1
    18    11    12   ar
    19    11    14    1
    20    12    13   ar
    21    12    17    1
    22    13    37    1
    23    14    15    1
    24    14    25    2
    25    15    16    1
    26    15    38    1
    27    15    39    1
    28    16    17    1
    29    16    18    1
    30    16    40    1
    31    18    19   ar
    32    18    23   ar
    33    19    20   ar
    34    19    41    1
    35    20    21   ar
    36    20    42    1
    37    21    22   ar
    38    21    24    1
    39    22    23   ar
    40    22    43    1
    41    23    44    1
    42    24    45    1
    43    26    46    1
    44    27    47    1
    45    28    48    1
    46    29    49    1
    47    30    50    1
    48     1    31    1
    49     1    27    1
    50     2    32    1
    51     2    28    1
    52     4    34    1
    53     4    30    1
