@<TRIPOS>MOLECULE
*****
 50 53 0 0 0
SMALL
GASTEIGER

@<TRIPOS>ATOM
     1 C         -1.141453   1.570638   -1.000492 C.3        1 UNL1     0.1889
     2 C         0.025088   1.092698   -0.09457 C.3        1 UNL1     0.1342
     3 C         0.044023   1.71686   1.309185 C.3        1 UNL1     0.1174
     4 C         -0.443436   3.167853   1.320165 C.3        1 UNL1     0.1456
     5 C         -1.740969   3.360698   0.514197 C.3        1 UNL1     0.2326
     6 O         -1.549463   2.919789   -0.828112 O.3        1 UNL1     -0.3076
     7 O         -2.897554   2.777736   1.141721 O.3        1 UNL1     -0.4605
     8 C         -2.779791   2.50089   2.491912 C.ar        1 UNL1     0.1310
     9 C         -2.689616   3.456096   3.510121 C.ar        1 UNL1     0.0226
     10 C         -2.590117   3.074764   4.853471 C.ar        1 UNL1     0.1343
     11 C         -2.602373   1.727864   5.213402 C.ar        1 UNL1     0.1007
     12 C         -2.650647   0.764161   4.202596 C.ar        1 UNL1     0.1389
     13 C         -2.748023   1.147811   2.851759 C.ar        1 UNL1     0.0229
     14 C         -2.584277   1.270579   6.622202 C.2        1 UNL1     0.1740
     15 C         -2.827402   -0.195138   6.832237 C.3        1 UNL1     0.0520
     16 C         -2.087333   -0.966477   5.748128 C.3        1 UNL1     0.1322
     17 O         -2.559952   -0.588392   4.436353 O.3        1 UNL1     -0.4828
     18 C         -0.564995   -0.942713   5.90512 C.ar        1 UNL1     -0.0067
     19 C         0.245709   -1.460266   4.874047 C.ar        1 UNL1     -0.0516
     20 C         1.639002   -1.497124   5.005726 C.ar        1 UNL1     -0.0198
     21 C         2.231906   -1.027304   6.163984 C.ar        1 UNL1     0.1169
     22 C         1.462474   -0.480999   7.182986 C.ar        1 UNL1     -0.0198
     23 C         0.070426   -0.427082   7.043873 C.ar        1 UNL1     -0.0516
     24 O         3.588803   -1.114172   6.272078 O.3        1 UNL1     -0.5068
     25 O         -2.461236   2.031425   7.578475 O.2        1 UNL1     -0.2917
     26 O         -2.504162   4.055516   5.798099 O.3        1 UNL1     -0.5058
     27 O         -2.249961   0.685244   -1.008983 O.3        1 UNL1     -0.3648
     28 O         1.268794   1.43652   -0.733074 O.3        1 UNL1     -0.3841
     29 O         -0.656725   0.890543   2.241002 O.3        1 UNL1     -0.3863
     30 O         0.581803   4.016291   0.759159 O.3        1 UNL1     -0.3829
     31 H         -0.768391   1.545522   -2.030188 H        1 UNL1     0.0937
     32 H         0.0   0.0   0.0 H        1 UNL1     0.0671
     33 H         1.086533   1.729196   1.656664 H        1 UNL1     0.0649
     34 H         -0.605566   3.500114   2.351532 H        1 UNL1     0.0683
     35 H         -1.869822   4.449681   0.476904 H        1 UNL1     0.1085
     36 H         -2.731203   4.519214   3.29995 H        1 UNL1     0.0691
     37 H         -2.783109   0.378171   2.083699 H        1 UNL1     0.0691
     38 H         -3.907722   -0.363969   6.769538 H        1 UNL1     0.0385
     39 H         -2.495527   -0.473475   7.838302 H        1 UNL1     0.0385
     40 H         -2.373455   -2.022136   5.849309 H        1 UNL1     0.0789
     41 H         -0.19606   -1.843532   3.958843 H        1 UNL1     0.0623
     42 H         2.252505   -1.909575   4.208538 H        1 UNL1     0.0654
     43 H         1.917543   -0.096461   8.087946 H        1 UNL1     0.0654
     44 H         -0.498897   0.015992   7.855293 H        1 UNL1     0.0623
     45 H         3.806388   -1.414368   7.169438 H        1 UNL1     0.2921
     46 H         -1.577668   4.169503   6.062727 H        1 UNL1     0.2922
     47 H         -2.757695   0.776582   -0.190617 H        1 UNL1     0.2126
     48 H         1.246164   1.035997   -1.623468 H        1 UNL1     0.2101
     49 H         -1.594168   0.838036   1.995567 H        1 UNL1     0.2100
     50 H         1.444401   3.568524   0.882214 H        1 UNL1     0.2102
@<TRIPOS>BOND
     1     1     2    1
     2     1     6    1
     3     2     3    1
     4     3     4    1
     5     3    29    1
     6     3    33    1
     7     4     5    1
     8     5     6    1
     9     5     7    1
    10     5    35    1
    11     7     8    1
    12     8     9   ar
    13     8    13   ar
    14     9    10   ar
    15     9    36    1
    16    10    11   ar
    17    10    26    1
    18    11    12   ar
    19    11    14    1
    20    12    13   ar
    21    12    17    1
    22    13    37    1
    23    14    15    1
    24    14    25    2
    25    15    16    1
    26    15    38    1
    27    15    39    1
    28    16    17    1
    29    16    18    1
    30    16    40    1
    31    18    19   ar
    32    18    23   ar
    33    19    20   ar
    34    19    41    1
    35    20    21   ar
    36    20    42    1
    37    21    22   ar
    38    21    24    1
    39    22    23   ar
    40    22    43    1
    41    23    44    1
    42    24    45    1
    43    26    46    1
    44    27    47    1
    45    28    48    1
    46    29    49    1
    47    30    50    1
    48     1    31    1
    49     1    27    1
    50     2    32    1
    51     2    28    1
    52     4    34    1
    53     4    30    1
