@<TRIPOS>MOLECULE
*****
 50 53 0 0 0
SMALL
GASTEIGER

@<TRIPOS>ATOM
     1 C         -0.640639   -1.443607   1.508769 C.3        1 UNL1     0.1889
     2 C         -0.607836   -0.911884   0.050642 C.3        1 UNL1     0.1342
     3 C         -1.988948   -0.62803   -0.559621 C.3        1 UNL1     0.1174
     4 C         -3.061589   -1.610742   -0.083349 C.3        1 UNL1     0.1456
     5 C         -3.029536   -1.826438   1.440729 C.3        1 UNL1     0.2326
     6 O         -1.73854   -2.280933   1.840271 O.3        1 UNL1     -0.3076
     7 O         -3.485018   -0.685716   2.190802 O.3        1 UNL1     -0.4605
     8 C         -3.418659   -0.799814   3.567794 C.ar        1 UNL1     0.1310
     9 C         -2.910313   -1.900344   4.266163 C.ar        1 UNL1     0.0226
     10 C         -2.870284   -1.913917   5.66549 C.ar        1 UNL1     0.1343
     11 C         -3.316138   -0.816341   6.400596 C.ar        1 UNL1     0.1007
     12 C         -3.863793   0.27163   5.715631 C.ar        1 UNL1     0.1389
     13 C         -3.906366   0.283941   4.308696 C.ar        1 UNL1     0.0229
     14 C         -3.219625   -0.742941   7.876892 C.2        1 UNL1     0.1740
     15 C         -3.536986   0.592662   8.482696 C.3        1 UNL1     0.0520
     16 C         -4.729431   1.185367   7.744635 C.3        1 UNL1     0.1322
     17 O         -4.430271   1.357572   6.34181 O.3        1 UNL1     -0.4828
     18 C         -6.049687   0.464665   8.027894 C.ar        1 UNL1     -0.0067
     19 C         -6.557327   0.440773   9.343168 C.ar        1 UNL1     -0.0516
     20 C         -7.73729   -0.249427   9.645285 C.ar        1 UNL1     -0.0198
     21 C         -8.413417   -0.92429   8.644666 C.ar        1 UNL1     0.1169
     22 C         -7.956526   -0.891291   7.33356 C.ar        1 UNL1     -0.0198
     23 C         -6.786568   -0.185793   7.027741 C.ar        1 UNL1     -0.0516
     24 O         -9.538466   -1.616925   8.983668 O.3        1 UNL1     -0.5068
     25 O         -2.830313   -1.674585   8.576149 O.2        1 UNL1     -0.2917
     26 O         -2.363393   -3.018298   6.285964 O.3        1 UNL1     -0.5058
     27 O         -0.439757   -0.432787   2.483796 O.3        1 UNL1     -0.3648
     28 O         0.033136   -1.897703   -0.780033 O.3        1 UNL1     -0.3841
     29 O         -2.360926   0.737125   -0.35933 O.3        1 UNL1     -0.3863
     30 O         -2.861819   -2.883233   -0.736456 O.3        1 UNL1     -0.3829
     31 H         0.227123   -2.102756   1.620974 H        1 UNL1     0.0937
     32 H         0.0   0.0   0.0 H        1 UNL1     0.0671
     33 H         -1.906144   -0.751125   -1.648525 H        1 UNL1     0.0649
     34 H         -4.054306   -1.252058   -0.377046 H        1 UNL1     0.0683
     35 H         -3.725541   -2.658625   1.604804 H        1 UNL1     0.1085
     36 H         -2.497138   -2.760923   3.751564 H        1 UNL1     0.0691
     37 H         -4.338683   1.14249   3.799296 H        1 UNL1     0.0691
     38 H         -2.649928   1.225515   8.37246 H        1 UNL1     0.0385
     39 H         -3.734449   0.463815   9.552361 H        1 UNL1     0.0385
     40 H         -4.869087   2.207057   8.123008 H        1 UNL1     0.0789
     41 H         -6.040236   0.955002   10.14805 H        1 UNL1     0.0623
     42 H         -8.112152   -0.270347   10.665605 H        1 UNL1     0.0654
     43 H         -8.486389   -1.403772   6.539508 H        1 UNL1     0.0654
     44 H         -6.464299   -0.172407   5.991011 H        1 UNL1     0.0623
     45 H         -10.160088   -1.003508   9.407959 H        1 UNL1     0.2921
     46 H         -2.299166   -3.746766   5.648295 H        1 UNL1     0.2922
     47 H         0.333489   0.102407   2.25682 H        1 UNL1     0.2126
     48 H         0.615857   -2.419774   -0.195557 H        1 UNL1     0.2101
     49 H         -3.300612   0.791879   -0.123138 H        1 UNL1     0.2100
     50 H         -2.448361   -3.492278   -0.090058 H        1 UNL1     0.2102
@<TRIPOS>BOND
     1     1     2    1
     2     1     6    1
     3     2     3    1
     4     3     4    1
     5     3    29    1
     6     3    33    1
     7     4     5    1
     8     5     6    1
     9     5     7    1
    10     5    35    1
    11     7     8    1
    12     8     9   ar
    13     8    13   ar
    14     9    10   ar
    15     9    36    1
    16    10    11   ar
    17    10    26    1
    18    11    12   ar
    19    11    14    1
    20    12    13   ar
    21    12    17    1
    22    13    37    1
    23    14    15    1
    24    14    25    2
    25    15    16    1
    26    15    38    1
    27    15    39    1
    28    16    17    1
    29    16    18    1
    30    16    40    1
    31    18    19   ar
    32    18    23   ar
    33    19    20   ar
    34    19    41    1
    35    20    21   ar
    36    20    42    1
    37    21    22   ar
    38    21    24    1
    39    22    23   ar
    40    22    43    1
    41    23    44    1
    42    24    45    1
    43    26    46    1
    44    27    47    1
    45    28    48    1
    46    29    49    1
    47    30    50    1
    48     1    31    1
    49     1    27    1
    50     2    32    1
    51     2    28    1
    52     4    34    1
    53     4    30    1
