@<TRIPOS>MOLECULE
*****
 50 53 0 0 0
SMALL
GASTEIGER

@<TRIPOS>ATOM
     1 C         -0.12954   -1.825308   -1.192591 C.3        1 UNL1     0.1889
     2 C         -0.102082   -0.279172   -1.056032 C.3        1 UNL1     0.1342
     3 C         -1.324571   0.438684   -1.648205 C.3        1 UNL1     0.1174
     4 C         -1.867875   -0.250787   -2.902226 C.3        1 UNL1     0.1456
     5 C         -2.000271   -1.774694   -2.72746 C.3        1 UNL1     0.2326
     6 O         -0.73859   -2.334385   -2.370001 O.3        1 UNL1     -0.3076
     7 O         -3.062847   -2.159284   -1.8362 O.3        1 UNL1     -0.4605
     8 C         -3.123085   -3.501845   -1.508437 C.ar        1 UNL1     0.1310
     9 C         -4.238074   -4.156214   -0.973739 C.ar        1 UNL1     0.0226
     10 C         -4.205912   -5.526828   -0.690391 C.ar        1 UNL1     0.1343
     11 C         -3.064645   -6.281858   -0.957378 C.ar        1 UNL1     0.1007
     12 C         -1.931336   -5.631634   -1.452962 C.ar        1 UNL1     0.1389
     13 C         -1.963061   -4.252973   -1.735308 C.ar        1 UNL1     0.0229
     14 C         -3.003755   -7.7481   -0.755937 C.2        1 UNL1     0.1740
     15 C         -1.782922   -8.428371   -1.302148 C.3        1 UNL1     0.0520
     16 C         -0.573656   -7.547449   -1.019999 C.3        1 UNL1     0.1322
     17 O         -0.721667   -6.256087   -1.650513 O.3        1 UNL1     -0.4828
     18 C         -0.18467   -7.490288   0.459239 C.ar        1 UNL1     -0.0067
     19 C         1.115024   -7.873947   0.848875 C.ar        1 UNL1     -0.0516
     20 C         1.488431   -7.878687   2.198137 C.ar        1 UNL1     -0.0198
     21 C         0.57112   -7.509789   3.165754 C.ar        1 UNL1     0.1169
     22 C         -0.70584   -7.094976   2.810592 C.ar        1 UNL1     -0.0198
     23 C         -1.073713   -7.072479   1.459955 C.ar        1 UNL1     -0.0516
     24 O         0.958922   -7.563044   4.472343 O.3        1 UNL1     -0.5068
     25 O         -3.914296   -8.399579   -0.250985 O.2        1 UNL1     -0.2917
     26 O         -5.326579   -6.10453   -0.168904 O.3        1 UNL1     -0.5058
     27 O         -0.602308   -2.487216   -0.030199 O.3        1 UNL1     -0.3648
     28 O         1.061263   0.218771   -1.742609 O.3        1 UNL1     -0.3841
     29 O         -2.326681   0.640993   -0.649716 O.3        1 UNL1     -0.3863
     30 O         -0.980497   0.01389   -4.010466 O.3        1 UNL1     -0.3829
     31 H         0.912849   -2.149961   -1.282615 H        1 UNL1     0.0937
     32 H         0.0   0.0   0.0 H        1 UNL1     0.0671
     33 H         -1.007425   1.446195   -1.95162 H        1 UNL1     0.0649
     34 H         -2.844733   0.169165   -3.1664 H        1 UNL1     0.0683
     35 H         -2.235765   -2.137134   -3.735953 H        1 UNL1     0.1085
     36 H         -5.17323   -3.63661   -0.795931 H        1 UNL1     0.0691
     37 H         -1.067092   -3.770185   -2.119558 H        1 UNL1     0.0691
     38 H         -1.931885   -8.561578   -2.378992 H        1 UNL1     0.0385
     39 H         -1.689175   -9.419179   -0.844667 H        1 UNL1     0.0385
     40 H         0.285679   -8.00461   -1.528986 H        1 UNL1     0.0789
     41 H         1.850555   -8.176532   0.109222 H        1 UNL1     0.0623
     42 H         2.489918   -8.187978   2.486881 H        1 UNL1     0.0654
     43 H         -1.427289   -6.789655   3.559058 H        1 UNL1     0.0654
     44 H         -2.076089   -6.732748   1.217739 H        1 UNL1     0.0623
     45 H         0.177476   -7.751968   5.016739 H        1 UNL1     0.2921
     46 H         -5.300864   -7.061438   -0.327267 H        1 UNL1     0.2922
     47 H         -1.458189   -2.124085   0.237125 H        1 UNL1     0.2126
     48 H         1.615744   -0.557287   -1.952411 H        1 UNL1     0.2101
     49 H         -3.127805   1.008444   -1.055885 H        1 UNL1     0.2100
     50 H         -0.141826   -0.465031   -3.846219 H        1 UNL1     0.2102
@<TRIPOS>BOND
     1     1     2    1
     2     1     6    1
     3     2     3    1
     4     3     4    1
     5     3    29    1
     6     3    33    1
     7     4     5    1
     8     5     6    1
     9     5     7    1
    10     5    35    1
    11     7     8    1
    12     8     9   ar
    13     8    13   ar
    14     9    10   ar
    15     9    36    1
    16    10    11   ar
    17    10    26    1
    18    11    12   ar
    19    11    14    1
    20    12    13   ar
    21    12    17    1
    22    13    37    1
    23    14    15    1
    24    14    25    2
    25    15    16    1
    26    15    38    1
    27    15    39    1
    28    16    17    1
    29    16    18    1
    30    16    40    1
    31    18    19   ar
    32    18    23   ar
    33    19    20   ar
    34    19    41    1
    35    20    21   ar
    36    20    42    1
    37    21    22   ar
    38    21    24    1
    39    22    23   ar
    40    22    43    1
    41    23    44    1
    42    24    45    1
    43    26    46    1
    44    27    47    1
    45    28    48    1
    46    29    49    1
    47    30    50    1
    48     1    31    1
    49     1    27    1
    50     2    32    1
    51     2    28    1
    52     4    34    1
    53     4    30    1
