@<TRIPOS>MOLECULE
*****
 50 53 0 0 0
SMALL
GASTEIGER

@<TRIPOS>ATOM
     1 C         -0.333167   -1.329288   1.700823 C.3        1 UNL1     0.1889
     2 C         -0.462011   -0.975806   0.194705 C.3        1 UNL1     0.1342
     3 C         -1.90219   -0.964051   -0.340284 C.3        1 UNL1     0.1174
     4 C         -2.788566   -2.024219   0.318122 C.3        1 UNL1     0.1456
     5 C         -2.638839   -2.050105   1.850204 C.3        1 UNL1     0.2326
     6 O         -1.274226   -2.267372   2.201624 O.3        1 UNL1     -0.3076
     7 O         -3.215383   -0.903741   2.501946 O.3        1 UNL1     -0.4605
     8 C         -3.726334   -1.120054   3.769094 C.ar        1 UNL1     0.1310
     9 C         -4.54222   -2.193832   4.141426 C.ar        1 UNL1     0.0226
     10 C         -4.996533   -2.335048   5.458074 C.ar        1 UNL1     0.1343
     11 C         -4.626058   -1.417936   6.44067 C.ar        1 UNL1     0.1007
     12 C         -3.845391   -0.319088   6.072054 C.ar        1 UNL1     0.1389
     13 C         -3.390889   -0.175887   4.747534 C.ar        1 UNL1     0.0229
     14 C         -5.008183   -1.564578   7.864267 C.2        1 UNL1     0.1740
     15 C         -4.341079   -0.616121   8.816608 C.3        1 UNL1     0.0520
     16 C         -4.272184   0.756145   8.16079 C.3        1 UNL1     0.1322
     17 O         -3.512196   0.700349   6.933446 O.3        1 UNL1     -0.4828
     18 C         -5.631861   1.447488   8.034115 C.ar        1 UNL1     -0.0067
     19 C         -6.010048   2.010429   6.797876 C.ar        1 UNL1     -0.0516
     20 C         -7.225727   2.691002   6.66038 C.ar        1 UNL1     -0.0198
     21 C         -8.066741   2.821547   7.751013 C.ar        1 UNL1     0.1169
     22 C         -7.737316   2.249185   8.972782 C.ar        1 UNL1     -0.0198
     23 C         -6.530161   1.552655   9.105746 C.ar        1 UNL1     -0.0516
     24 O         -9.224839   3.523651   7.588965 O.3        1 UNL1     -0.5068
     25 O         -5.756702   -2.44703   8.275949 O.2        1 UNL1     -0.2917
     26 O         -5.790296   -3.404118   5.755754 O.3        1 UNL1     -0.5058
     27 O         -0.229693   -0.191352   2.541763 O.3        1 UNL1     -0.3648
     28 O         0.270143   -1.953406   -0.567499 O.3        1 UNL1     -0.3841
     29 O         -2.460632   0.349149   -0.264253 O.3        1 UNL1     -0.3863
     30 O         -2.43947   -3.324551   -0.204331 O.3        1 UNL1     -0.3829
     31 H         0.627704   -1.84154   1.820836 H        1 UNL1     0.0937
     32 H         0.0   0.0   0.0 H        1 UNL1     0.0671
     33 H         -1.863681   -1.203114   -1.412238 H        1 UNL1     0.0649
     34 H         -3.838492   -1.846498   0.060302 H        1 UNL1     0.0683
     35 H         -3.193315   -2.946484   2.155064 H        1 UNL1     0.1085
     36 H         -4.819258   -2.970509   3.437052 H        1 UNL1     0.0691
     37 H         -2.785266   0.689135   4.485901 H        1 UNL1     0.0691
     38 H         -3.338642   -1.005511   9.024025 H        1 UNL1     0.0385
     39 H         -4.902289   -0.597859   9.75708 H        1 UNL1     0.0385
     40 H         -3.678511   1.401578   8.822219 H        1 UNL1     0.0789
     41 H         -5.363255   1.929526   5.929104 H        1 UNL1     0.0623
     42 H         -7.500645   3.130984   5.704949 H        1 UNL1     0.0654
     43 H         -8.3955   2.33246   9.829385 H        1 UNL1     0.0654
     44 H         -6.309685   1.109144   10.071941 H        1 UNL1     0.0623
     45 H         -8.999271   4.431474   7.328787 H        1 UNL1     0.2921
     46 H         -5.386705   -3.916685   6.473946 H        1 UNL1     0.2922
     47 H         0.513245   0.36302   2.265042 H        1 UNL1     0.2126
     48 H         1.202667   -1.887051   -0.285138 H        1 UNL1     0.2101
     49 H         -2.021378   0.932093   -0.903804 H        1 UNL1     0.2100
     50 H         -2.671534   -3.339358   -1.155982 H        1 UNL1     0.2102
@<TRIPOS>BOND
     1     1     2    1
     2     1     6    1
     3     2     3    1
     4     3     4    1
     5     3    29    1
     6     3    33    1
     7     4     5    1
     8     5     6    1
     9     5     7    1
    10     5    35    1
    11     7     8    1
    12     8     9   ar
    13     8    13   ar
    14     9    10   ar
    15     9    36    1
    16    10    11   ar
    17    10    26    1
    18    11    12   ar
    19    11    14    1
    20    12    13   ar
    21    12    17    1
    22    13    37    1
    23    14    15    1
    24    14    25    2
    25    15    16    1
    26    15    38    1
    27    15    39    1
    28    16    17    1
    29    16    18    1
    30    16    40    1
    31    18    19   ar
    32    18    23   ar
    33    19    20   ar
    34    19    41    1
    35    20    21   ar
    36    20    42    1
    37    21    22   ar
    38    21    24    1
    39    22    23   ar
    40    22    43    1
    41    23    44    1
    42    24    45    1
    43    26    46    1
    44    27    47    1
    45    28    48    1
    46    29    49    1
    47    30    50    1
    48     1    31    1
    49     1    27    1
    50     2    32    1
    51     2    28    1
    52     4    34    1
    53     4    30    1
