@<TRIPOS>MOLECULE
*****
 50 53 0 0 0
SMALL
GASTEIGER

@<TRIPOS>ATOM
     1 C         -0.333722   -1.331145   1.69926 C.3        1 UNL1     0.1889
     2 C         -0.463846   -0.975104   0.193856 C.3        1 UNL1     0.1342
     3 C         -1.90472   -0.95944   -0.339156 C.3        1 UNL1     0.1174
     4 C         -2.792484   -2.018696   0.318849 C.3        1 UNL1     0.1456
     5 C         -2.640736   -2.047227   1.850685 C.3        1 UNL1     0.2326
     6 O         -1.276118   -2.267961   2.19992 O.3        1 UNL1     -0.3076
     7 O         -3.213926   -0.900615   2.504943 O.3        1 UNL1     -0.4605
     8 C         -3.724048   -1.117854   3.772268 C.ar        1 UNL1     0.1310
     9 C         -4.542038   -2.190352   4.14367 C.ar        1 UNL1     0.0226
     10 C         -4.995296   -2.332708   5.460558 C.ar        1 UNL1     0.1343
     11 C         -4.621656   -1.418101   6.44429 C.ar        1 UNL1     0.1007
     12 C         -3.838822   -0.320458   6.076683 C.ar        1 UNL1     0.1389
     13 C         -3.385379   -0.176104   4.751926 C.ar        1 UNL1     0.0229
     14 C         -5.002626   -1.56623   7.868043 C.2        1 UNL1     0.1740
     15 C         -4.332317   -0.620918   8.821259 C.3        1 UNL1     0.0520
     16 C         -4.260918   0.752277   8.167658 C.3        1 UNL1     0.1322
     17 O         -3.502352   0.696762   6.939421 O.3        1 UNL1     -0.4828
     18 C         -5.619115   1.44699   8.043568 C.ar        1 UNL1     -0.0067
     19 C         -5.996105   2.015321   6.809432 C.ar        1 UNL1     -0.0516
     20 C         -7.210328   2.698997   6.674479 C.ar        1 UNL1     -0.0198
     21 C         -8.051054   2.827291   7.765601 C.ar        1 UNL1     0.1169
     22 C         -7.722845   2.249697   8.985233 C.ar        1 UNL1     -0.0198
     23 C         -6.517181   1.550099   9.115594 C.ar        1 UNL1     -0.0516
     24 O         -9.20765   3.532465   7.606176 O.3        1 UNL1     -0.5068
     25 O         -5.752764   -2.447626   8.279042 O.2        1 UNL1     -0.2917
     26 O         -5.791232   -3.400425   5.757292 O.3        1 UNL1     -0.5058
     27 O         -0.226657   -0.19471   2.54178 O.3        1 UNL1     -0.3648
     28 O         0.265167   -1.95312   -0.570821 O.3        1 UNL1     -0.3841
     29 O         -2.460231   0.354841   -0.260379 O.3        1 UNL1     -0.3863
     30 O         -2.446897   -3.318983   -0.206045 O.3        1 UNL1     -0.3829
     31 H         0.626206   -1.845645   1.817192 H        1 UNL1     0.0937
     32 H         0.0   0.0   0.0 H        1 UNL1     0.0671
     33 H         -1.868181   -1.19696   -1.411522 H        1 UNL1     0.0649
     34 H         -3.842374   -1.838326   0.062725 H        1 UNL1     0.0683
     35 H         -3.196727   -2.942873   2.154941 H        1 UNL1     0.1085
     36 H         -4.821623   -2.965206   3.438294 H        1 UNL1     0.0691
     37 H         -2.778021   0.687943   4.491096 H        1 UNL1     0.0691
     38 H         -3.330572   -1.012983   9.026971 H        1 UNL1     0.0385
     39 H         -4.892495   -0.602921   9.762352 H        1 UNL1     0.0385
     40 H         -3.66505   1.395223   8.829535 H        1 UNL1     0.0789
     41 H         -5.349493   1.936261   5.940356 H        1 UNL1     0.0623
     42 H         -7.48431   3.143108   5.720691 H        1 UNL1     0.0654
     43 H         -8.380844   2.331199   9.842149 H        1 UNL1     0.0654
     44 H         -6.297648   1.102536   10.080134 H        1 UNL1     0.0623
     45 H         -8.980143   4.440763   7.349365 H        1 UNL1     0.2921
     46 H         -5.388166   -3.91503   6.474322 H        1 UNL1     0.2922
     47 H         0.517097   0.358481   2.264889 H        1 UNL1     0.2126
     48 H         1.198214   -1.8892   -0.289627 H        1 UNL1     0.2101
     49 H         -2.020709   0.937765   -0.899765 H        1 UNL1     0.2100
     50 H         -2.680283   -3.331847   -1.157401 H        1 UNL1     0.2102
@<TRIPOS>BOND
     1     1     2    1
     2     1     6    1
     3     2     3    1
     4     3     4    1
     5     3    29    1
     6     3    33    1
     7     4     5    1
     8     5     6    1
     9     5     7    1
    10     5    35    1
    11     7     8    1
    12     8     9   ar
    13     8    13   ar
    14     9    10   ar
    15     9    36    1
    16    10    11   ar
    17    10    26    1
    18    11    12   ar
    19    11    14    1
    20    12    13   ar
    21    12    17    1
    22    13    37    1
    23    14    15    1
    24    14    25    2
    25    15    16    1
    26    15    38    1
    27    15    39    1
    28    16    17    1
    29    16    18    1
    30    16    40    1
    31    18    19   ar
    32    18    23   ar
    33    19    20   ar
    34    19    41    1
    35    20    21   ar
    36    20    42    1
    37    21    22   ar
    38    21    24    1
    39    22    23   ar
    40    22    43    1
    41    23    44    1
    42    24    45    1
    43    26    46    1
    44    27    47    1
    45    28    48    1
    46    29    49    1
    47    30    50    1
    48     1    31    1
    49     1    27    1
    50     2    32    1
    51     2    28    1
    52     4    34    1
    53     4    30    1
