@<TRIPOS>MOLECULE
*****
 50 53 0 0 0
SMALL
GASTEIGER

@<TRIPOS>ATOM
     1 C         2.032613   0.45225   -0.659362 C.3        1 UNL1     0.1889
     2 C         0.639141   -0.199025   -0.869166 C.3        1 UNL1     0.1342
     3 C         0.671598   -1.712543   -1.131222 C.3        1 UNL1     0.1174
     4 C         1.895832   -2.148719   -1.939998 C.3        1 UNL1     0.1456
     5 C         3.202655   -1.527554   -1.413944 C.3        1 UNL1     0.2326
     6 O         3.099022   -0.105539   -1.413046 O.3        1 UNL1     -0.3076
     7 O         3.623419   -2.065048   -0.146908 O.3        1 UNL1     -0.4605
     8 C         4.367695   -1.217627   0.654003 C.ar        1 UNL1     0.1310
     9 C         3.845002   -0.218674   1.482366 C.ar        1 UNL1     0.0226
     10 C         4.6825   0.579187   2.270983 C.ar        1 UNL1     0.1343
     11 C         6.062608   0.381361   2.268333 C.ar        1 UNL1     0.1007
     12 C         6.599683   -0.585642   1.414378 C.ar        1 UNL1     0.1389
     13 C         5.757584   -1.385978   0.619543 C.ar        1 UNL1     0.0229
     14 C         6.9864   1.13882   3.144129 C.2        1 UNL1     0.1740
     15 C         8.4031   0.645293   3.174774 C.3        1 UNL1     0.0520
     16 C         8.807827   0.254411   1.760078 C.3        1 UNL1     0.1322
     17 O         7.950098   -0.791014   1.25169 O.3        1 UNL1     -0.4828
     18 C         8.981251   1.44738   0.816958 C.ar        1 UNL1     -0.0067
     19 C         9.391993   2.690377   1.340849 C.ar        1 UNL1     -0.0516
     20 C         9.514561   3.813298   0.513813 C.ar        1 UNL1     -0.0198
     21 C         9.22287   3.708226   -0.83441 C.ar        1 UNL1     0.1169
     22 C         8.848339   2.489835   -1.385852 C.ar        1 UNL1     -0.0198
     23 C         8.743517   1.362442   -0.562412 C.ar        1 UNL1     -0.0516
     24 O         9.317016   4.831993   -1.601668 O.3        1 UNL1     -0.5068
     25 O         6.625939   2.062376   3.869109 O.2        1 UNL1     -0.2917
     26 O         4.109707   1.536753   3.056197 O.3        1 UNL1     -0.5058
     27 O         2.38301   0.610178   0.706312 O.3        1 UNL1     -0.3648
     28 O         0.013388   0.419693   -2.008608 O.3        1 UNL1     -0.3841
     29 O         0.526055   -2.441672   0.089155 O.3        1 UNL1     -0.3863
     30 O         1.717392   -1.756287   -3.318347 O.3        1 UNL1     -0.3829
     31 H         1.959289   1.477154   -1.039197 H        1 UNL1     0.0937
     32 H         0.0   0.0   0.0 H        1 UNL1     0.0671
     33 H         -0.213072   -1.968068   -1.731045 H        1 UNL1     0.0649
     34 H         1.983354   -3.240761   -1.926393 H        1 UNL1     0.0683
     35 H         3.946817   -1.79264   -2.175411 H        1 UNL1     0.1085
     36 H         2.776989   -0.05266   1.571295 H        1 UNL1     0.0691
     37 H         6.200633   -2.131139   -0.037676 H        1 UNL1     0.0691
     38 H         8.438726   -0.217533   3.848412 H        1 UNL1     0.0385
     39 H         9.047279   1.42882   3.588171 H        1 UNL1     0.0385
     40 H         9.800311   -0.211797   1.824463 H        1 UNL1     0.0789
     41 H         9.617967   2.801007   2.397422 H        1 UNL1     0.0623
     42 H         9.820688   4.769075   0.931888 H        1 UNL1     0.0654
     43 H         8.632129   2.392905   -2.443098 H        1 UNL1     0.0654
     44 H         8.458615   0.424264   -1.028778 H        1 UNL1     0.0623
     45 H         10.196407   5.221442   -1.468564 H        1 UNL1     0.2921
     46 H         3.63072   1.112908   3.785813 H        1 UNL1     0.2922
     47 H         2.689011   1.512967   0.871221 H        1 UNL1     0.2126
     48 H         -0.931527   0.525384   -1.785682 H        1 UNL1     0.2101
     49 H         0.667438   -1.850486   0.845663 H        1 UNL1     0.2100
     50 H         2.069959   -0.848099   -3.421328 H        1 UNL1     0.2102
@<TRIPOS>BOND
     1     1     2    1
     2     1     6    1
     3     2     3    1
     4     3     4    1
     5     3    29    1
     6     3    33    1
     7     4     5    1
     8     5     6    1
     9     5     7    1
    10     5    35    1
    11     7     8    1
    12     8     9   ar
    13     8    13   ar
    14     9    10   ar
    15     9    36    1
    16    10    11   ar
    17    10    26    1
    18    11    12   ar
    19    11    14    1
    20    12    13   ar
    21    12    17    1
    22    13    37    1
    23    14    15    1
    24    14    25    2
    25    15    16    1
    26    15    38    1
    27    15    39    1
    28    16    17    1
    29    16    18    1
    30    16    40    1
    31    18    19   ar
    32    18    23   ar
    33    19    20   ar
    34    19    41    1
    35    20    21   ar
    36    20    42    1
    37    21    22   ar
    38    21    24    1
    39    22    23   ar
    40    22    43    1
    41    23    44    1
    42    24    45    1
    43    26    46    1
    44    27    47    1
    45    28    48    1
    46    29    49    1
    47    30    50    1
    48     1    31    1
    49     1    27    1
    50     2    32    1
    51     2    28    1
    52     4    34    1
    53     4    30    1
