@<TRIPOS>MOLECULE
*****
 50 53 0 0 0
SMALL
GASTEIGER

@<TRIPOS>ATOM
     1 C         -0.025454   -1.160461   1.850267 C.3        1 UNL1     0.1889
     2 C         -0.281858   -1.008644   0.326735 C.3        1 UNL1     0.1342
     3 C         -1.72685   -1.291908   -0.111701 C.3        1 UNL1     0.1174
     4 C         -2.390801   -2.398407   0.711673 C.3        1 UNL1     0.1456
     5 C         -2.167685   -2.222788   2.224862 C.3        1 UNL1     0.2326
     6 O         -0.771107   -2.174343   2.507867 O.3        1 UNL1     -0.3076
     7 O         -2.897721   -1.117402   2.787435 O.3        1 UNL1     -0.4605
     8 C         -4.23466   -1.348373   3.057204 C.ar        1 UNL1     0.1310
     9 C         -4.934231   -2.518625   2.743498 C.ar        1 UNL1     0.0226
     10 C         -6.286753   -2.664005   3.07433 C.ar        1 UNL1     0.1343
     11 C         -6.966986   -1.651007   3.748838 C.ar        1 UNL1     0.1007
     12 C         -6.290048   -0.461486   4.030936 C.ar        1 UNL1     0.1389
     13 C         -4.930809   -0.314517   3.695825 C.ar        1 UNL1     0.0229
     14 C         -8.372521   -1.78479   4.196863 C.2        1 UNL1     0.1740
     15 C         -8.873036   -0.694979   5.09872 C.3        1 UNL1     0.0520
     16 C         -8.335527   0.635747   4.590576 C.3        1 UNL1     0.1322
     17 O         -6.890869   0.640303   4.594266 O.3        1 UNL1     -0.4828
     18 C         -8.967971   1.093441   3.274044 C.ar        1 UNL1     -0.0067
     19 C         -8.701874   2.391682   2.792407 C.ar        1 UNL1     -0.0516
     20 C         -9.301455   2.858537   1.616604 C.ar        1 UNL1     -0.0198
     21 C         -10.172734   2.041315   0.918858 C.ar        1 UNL1     0.1169
     22 C         -10.428671   0.746105   1.349865 C.ar        1 UNL1     -0.0198
     23 C         -9.81489   0.2725   2.515638 C.ar        1 UNL1     -0.0516
     24 O         -10.767072   2.543671   -0.201321 O.3        1 UNL1     -0.5068
     25 O         -9.078225   -2.753664   3.929002 O.2        1 UNL1     -0.2917
     26 O         -6.911405   -3.829847   2.739359 O.3        1 UNL1     -0.5058
     27 O         -0.075668   0.068541   2.557246 O.3        1 UNL1     -0.3648
     28 O         0.567895   -1.936194   -0.373461 O.3        1 UNL1     -0.3841
     29 O         -2.493908   -0.086505   -0.139239 O.3        1 UNL1     -0.3863
     30 O         -1.85283   -3.676582   0.308505 O.3        1 UNL1     -0.3829
     31 H         1.012375   -1.493152   1.961204 H        1 UNL1     0.0937
     32 H         0.0   0.0   0.0 H        1 UNL1     0.0671
     33 H         -1.698662   -1.643642   -1.152474 H        1 UNL1     0.0649
     34 H         -3.466511   -2.423884   0.505274 H        1 UNL1     0.0683
     35 H         -2.548812   -3.155844   2.658484 H        1 UNL1     0.1085
     36 H         -4.447679   -3.364182   2.269766 H        1 UNL1     0.0691
     37 H         -4.426882   0.621898   3.925342 H        1 UNL1     0.0691
     38 H         -8.508774   -0.908054   6.109382 H        1 UNL1     0.0385
     39 H         -9.96795   -0.719234   5.117569 H        1 UNL1     0.0385
     40 H         -8.614371   1.400391   5.328197 H        1 UNL1     0.0789
     41 H         -8.028776   3.055763   3.326809 H        1 UNL1     0.0623
     42 H         -9.097497   3.86581   1.261902 H        1 UNL1     0.0654
     43 H         -11.097619   0.092452   0.802913 H        1 UNL1     0.0654
     44 H         -10.029391   -0.74817   2.81741 H        1 UNL1     0.0623
     45 H         -10.726188   3.51294   -0.161772 H        1 UNL1     0.2921
     46 H         -7.447878   -4.13601   3.487605 H        1 UNL1     0.2922
     47 H         0.065958   -0.082747   3.502188 H        1 UNL1     0.2126
     48 H         0.025493   -2.331835   -1.082687 H        1 UNL1     0.2101
     49 H         -3.423241   -0.291002   -0.329802 H        1 UNL1     0.2100
     50 H         -1.205145   -3.958721   0.987191 H        1 UNL1     0.2102
@<TRIPOS>BOND
     1     1     2    1
     2     1     6    1
     3     2     3    1
     4     3     4    1
     5     3    29    1
     6     3    33    1
     7     4     5    1
     8     5     6    1
     9     5     7    1
    10     5    35    1
    11     7     8    1
    12     8     9   ar
    13     8    13   ar
    14     9    10   ar
    15     9    36    1
    16    10    11   ar
    17    10    26    1
    18    11    12   ar
    19    11    14    1
    20    12    13   ar
    21    12    17    1
    22    13    37    1
    23    14    15    1
    24    14    25    2
    25    15    16    1
    26    15    38    1
    27    15    39    1
    28    16    17    1
    29    16    18    1
    30    16    40    1
    31    18    19   ar
    32    18    23   ar
    33    19    20   ar
    34    19    41    1
    35    20    21   ar
    36    20    42    1
    37    21    22   ar
    38    21    24    1
    39    22    23   ar
    40    22    43    1
    41    23    44    1
    42    24    45    1
    43    26    46    1
    44    27    47    1
    45    28    48    1
    46    29    49    1
    47    30    50    1
    48     1    31    1
    49     1    27    1
    50     2    32    1
    51     2    28    1
    52     4    34    1
    53     4    30    1
