@<TRIPOS>MOLECULE
*****
 50 53 0 0 0
SMALL
GASTEIGER

@<TRIPOS>ATOM
     1 C         -0.335291   -1.330437   1.699506 C.3        1 UNL1     0.1889
     2 C         -0.463982   -0.975046   0.193825 C.3        1 UNL1     0.1342
     3 C         -1.904341   -0.959687   -0.340584 C.3        1 UNL1     0.1174
     4 C         -2.792684   -2.018709   0.317016 C.3        1 UNL1     0.1456
     5 C         -2.642413   -2.046577   1.84901 C.3        1 UNL1     0.2326
     6 O         -1.278121   -2.267089   2.199656 O.3        1 UNL1     -0.3076
     7 O         -3.216295   -0.899716   2.502225 O.3        1 UNL1     -0.4605
     8 C         -3.727628   -1.11644   3.769149 C.ar        1 UNL1     0.1310
     9 C         -4.54592   -2.188823   4.140219 C.ar        1 UNL1     0.0226
     10 C         -5.000441   -2.330641   5.45673 C.ar        1 UNL1     0.1343
     11 C         -4.627799   -1.415594   6.440431 C.ar        1 UNL1     0.1007
     12 C         -3.844669   -0.318066   6.073111 C.ar        1 UNL1     0.1389
     13 C         -3.389955   -0.174254   4.748731 C.ar        1 UNL1     0.0229
     14 C         -5.010135   -1.563135   7.863879 C.2        1 UNL1     0.1740
     15 C         -4.340797   -0.61738   8.817338 C.3        1 UNL1     0.0520
     16 C         -4.26884   0.75554   8.163219 C.3        1 UNL1     0.1322
     17 O         -3.509085   0.699541   6.935739 O.3        1 UNL1     -0.4828
     18 C         -5.626953   1.450127   8.037521 C.ar        1 UNL1     -0.0067
     19 C         -6.002782   2.01791   6.802779 C.ar        1 UNL1     -0.0516
     20 C         -7.21691   2.701464   6.666362 C.ar        1 UNL1     -0.0198
     21 C         -8.058696   2.83018   7.756618 C.ar        1 UNL1     0.1169
     22 C         -7.731634   2.253124   8.976812 C.ar        1 UNL1     -0.0198
     23 C         -6.526059   1.553646   9.108636 C.ar        1 UNL1     -0.0516
     24 O         -9.215175   3.535224   7.595775 O.3        1 UNL1     -0.5068
     25 O         -5.760623   -2.444395   8.274531 O.2        1 UNL1     -0.2917
     26 O         -5.796606   -3.398274   5.753152 O.3        1 UNL1     -0.5058
     27 O         -0.2291   -0.193636   2.541643 O.3        1 UNL1     -0.3648
     28 O         0.265821   -1.953349   -0.56973 O.3        1 UNL1     -0.3841
     29 O         -2.459997   0.354598   -0.262905 O.3        1 UNL1     -0.3863
     30 O         -2.446522   -3.319201   -0.206989 O.3        1 UNL1     -0.3829
     31 H         0.62455   -1.844834   1.818584 H        1 UNL1     0.0937
     32 H         0.0   0.0   0.0 H        1 UNL1     0.0671
     33 H         -1.866754   -1.197662   -1.412813 H        1 UNL1     0.0649
     34 H         -3.842335   -1.838504   0.059802 H        1 UNL1     0.0683
     35 H         -3.19865   -2.942122   2.153112 H        1 UNL1     0.1085
     36 H         -4.824783   -2.963993   3.434905 H        1 UNL1     0.0691
     37 H         -2.782391   0.689714   4.488118 H        1 UNL1     0.0691
     38 H         -3.33923   -1.009304   9.024184 H        1 UNL1     0.0385
     39 H         -4.901884   -0.59901   9.757881 H        1 UNL1     0.0385
     40 H         -3.673645   1.3988   8.825396 H        1 UNL1     0.0789
     41 H         -5.355327   1.938513   5.934362 H        1 UNL1     0.0623
     42 H         -7.489995   3.145153   5.712121 H        1 UNL1     0.0654
     43 H         -8.390464   2.334957   9.833058 H        1 UNL1     0.0654
     44 H         -6.307433   1.106508   10.073579 H        1 UNL1     0.0623
     45 H         -8.987319   4.444912   7.344247 H        1 UNL1     0.2921
     46 H         -5.394897   -3.911774   6.471733 H        1 UNL1     0.2922
     47 H         0.513201   0.360893   2.263534 H        1 UNL1     0.2126
     48 H         1.199545   -1.885351   -0.29176 H        1 UNL1     0.2101
     49 H         -2.019889   0.937272   -0.902115 H        1 UNL1     0.2100
     50 H         -2.678988   -3.332484   -1.158564 H        1 UNL1     0.2102
@<TRIPOS>BOND
     1     1     2    1
     2     1     6    1
     3     2     3    1
     4     3     4    1
     5     3    29    1
     6     3    33    1
     7     4     5    1
     8     5     6    1
     9     5     7    1
    10     5    35    1
    11     7     8    1
    12     8     9   ar
    13     8    13   ar
    14     9    10   ar
    15     9    36    1
    16    10    11   ar
    17    10    26    1
    18    11    12   ar
    19    11    14    1
    20    12    13   ar
    21    12    17    1
    22    13    37    1
    23    14    15    1
    24    14    25    2
    25    15    16    1
    26    15    38    1
    27    15    39    1
    28    16    17    1
    29    16    18    1
    30    16    40    1
    31    18    19   ar
    32    18    23   ar
    33    19    20   ar
    34    19    41    1
    35    20    21   ar
    36    20    42    1
    37    21    22   ar
    38    21    24    1
    39    22    23   ar
    40    22    43    1
    41    23    44    1
    42    24    45    1
    43    26    46    1
    44    27    47    1
    45    28    48    1
    46    29    49    1
    47    30    50    1
    48     1    31    1
    49     1    27    1
    50     2    32    1
    51     2    28    1
    52     4    34    1
    53     4    30    1
