@<TRIPOS>MOLECULE
*****
 50 53 0 0 0
SMALL
GASTEIGER

@<TRIPOS>ATOM
     1 C         -0.32951   -1.380771   1.66003 C.3        1 UNL1     0.1889
     2 C         -0.466667   -0.978742   0.166878 C.3        1 UNL1     0.1342
     3 C         -1.910441   -0.941375   -0.357129 C.3        1 UNL1     0.1174
     4 C         -2.798742   -2.016673   0.273562 C.3        1 UNL1     0.1456
     5 C         -2.638497   -2.09223   1.802933 C.3        1 UNL1     0.2326
     6 O         -1.272836   -2.328704   2.137475 O.3        1 UNL1     -0.3076
     7 O         -3.203382   -0.963788   2.494919 O.3        1 UNL1     -0.4605
     8 C         -3.717463   -1.219698   3.753394 C.ar        1 UNL1     0.1310
     9 C         -4.536043   -2.303372   4.089365 C.ar        1 UNL1     0.0226
     10 C         -4.993462   -2.485914   5.399842 C.ar        1 UNL1     0.1343
     11 C         -4.623508   -1.601469   6.412132 C.ar        1 UNL1     0.1007
     12 C         -3.84011   -0.492793   6.080605 C.ar        1 UNL1     0.1389
     13 C         -3.382482   -0.308014   4.762325 C.ar        1 UNL1     0.0229
     14 C         -5.00898   -1.792997   7.829482 C.2        1 UNL1     0.1740
     15 C         -4.342277   -0.876795   8.813165 C.3        1 UNL1     0.0520
     16 C         -4.269544   0.515672   8.201851 C.3        1 UNL1     0.1322
     17 O         -3.506992   0.49788   6.974957 O.3        1 UNL1     -0.4828
     18 C         -5.627724   1.213207   8.094545 C.ar        1 UNL1     -0.0067
     19 C         -5.753487   2.364154   7.289734 C.ar        1 UNL1     -0.0516
     20 C         -6.969198   3.053475   7.206993 C.ar        1 UNL1     -0.0198
     21 C         -8.062054   2.607207   7.928338 C.ar        1 UNL1     0.1169
     22 C         -7.978537   1.457754   8.703336 C.ar        1 UNL1     -0.0198
     23 C         -6.768038   0.757704   8.77174 C.ar        1 UNL1     -0.0516
     24 O         -9.218853   3.325879   7.852652 O.3        1 UNL1     -0.5068
     25 O         -5.759943   -2.686829   8.211062 O.2        1 UNL1     -0.2917
     26 O         -5.78975   -3.562529   5.661397 O.3        1 UNL1     -0.5058
     27 O         -0.213139   -0.27083   2.535972 O.3        1 UNL1     -0.3648
     28 O         0.254095   -1.935916   -0.63126 O.3        1 UNL1     -0.3841
     29 O         -2.460209   0.372042   -0.235371 O.3        1 UNL1     -0.3863
     30 O         -2.461346   -3.301764   -0.292472 O.3        1 UNL1     -0.3829
     31 H         0.628989   -1.902302   1.7568 H        1 UNL1     0.0937
     32 H         0.0   0.0   0.0 H        1 UNL1     0.0671
     33 H         -1.880889   -1.146403   -1.436393 H        1 UNL1     0.0649
     34 H         -3.849322   -1.824579   0.029056 H        1 UNL1     0.0683
     35 H         -3.196365   -2.994544   2.083096 H        1 UNL1     0.1085
     36 H         -4.812918   -3.056549   3.359855 H        1 UNL1     0.0691
     37 H         -2.774771   0.563845   4.529854 H        1 UNL1     0.0691
     38 H         -3.34098   -1.27447   9.010103 H        1 UNL1     0.0385
     39 H         -4.905495   -0.88768   9.752551 H        1 UNL1     0.0385
     40 H         -3.676173   1.138472   8.884897 H        1 UNL1     0.0789
     41 H         -4.907918   2.739899   6.720982 H        1 UNL1     0.0623
     42 H         -7.050265   3.946532   6.592267 H        1 UNL1     0.0654
     43 H         -8.83235   1.090929   9.260429 H        1 UNL1     0.0654
     44 H         -6.741585   -0.142237   9.378578 H        1 UNL1     0.0623
     45 H         -9.064304   4.198494   8.249355 H        1 UNL1     0.2921
     46 H         -5.40068   -4.085724   6.37994 H        1 UNL1     0.2922
     47 H         0.518386   0.298631   2.259484 H        1 UNL1     0.2126
     48 H         1.19913   -1.830581   -0.408674 H        1 UNL1     0.2101
     49 H         -2.027964   0.970435   -0.865358 H        1 UNL1     0.2100
     50 H         -2.726114   -3.294685   -1.235637 H        1 UNL1     0.2102
@<TRIPOS>BOND
     1     1     2    1
     2     1     6    1
     3     2     3    1
     4     3     4    1
     5     3    29    1
     6     3    33    1
     7     4     5    1
     8     5     6    1
     9     5     7    1
    10     5    35    1
    11     7     8    1
    12     8     9   ar
    13     8    13   ar
    14     9    10   ar
    15     9    36    1
    16    10    11   ar
    17    10    26    1
    18    11    12   ar
    19    11    14    1
    20    12    13   ar
    21    12    17    1
    22    13    37    1
    23    14    15    1
    24    14    25    2
    25    15    16    1
    26    15    38    1
    27    15    39    1
    28    16    17    1
    29    16    18    1
    30    16    40    1
    31    18    19   ar
    32    18    23   ar
    33    19    20   ar
    34    19    41    1
    35    20    21   ar
    36    20    42    1
    37    21    22   ar
    38    21    24    1
    39    22    23   ar
    40    22    43    1
    41    23    44    1
    42    24    45    1
    43    26    46    1
    44    27    47    1
    45    28    48    1
    46    29    49    1
    47    30    50    1
    48     1    31    1
    49     1    27    1
    50     2    32    1
    51     2    28    1
    52     4    34    1
    53     4    30    1
