@<TRIPOS>MOLECULE
*****
 50 53 0 0 0
SMALL
GASTEIGER

@<TRIPOS>ATOM
     1 C         -0.331969   -1.328262   1.701858 C.3        1 UNL1     0.1889
     2 C         -0.462444   -0.975394   0.195737 C.3        1 UNL1     0.1342
     3 C         -1.90328   -0.96289   -0.337463 C.3        1 UNL1     0.1174
     4 C         -2.78957   -2.022135   0.322542 C.3        1 UNL1     0.1456
     5 C         -2.637953   -2.04741   1.854448 C.3        1 UNL1     0.2326
     6 O         -1.273054   -2.265459   2.204269 O.3        1 UNL1     -0.3076
     7 O         -3.21289   -0.900341   2.50637 O.3        1 UNL1     -0.4605
     8 C         -3.722837   -1.115814   3.774067 C.ar        1 UNL1     0.1310
     9 C         -4.539303   -2.188767   4.147503 C.ar        1 UNL1     0.0226
     10 C         -4.9925   -2.329176   5.464621 C.ar        1 UNL1     0.1343
     11 C         -4.620307   -1.412077   6.44658 C.ar        1 UNL1     0.1007
     12 C         -3.839034   -0.314023   6.076885 C.ar        1 UNL1     0.1389
     13 C         -3.385653   -0.171632   4.751894 C.ar        1 UNL1     0.0229
     14 C         -5.00122   -1.557941   7.870582 C.2        1 UNL1     0.1740
     15 C         -4.3324   -0.609765   8.821997 C.3        1 UNL1     0.0520
     16 C         -4.262931   0.762235   8.165684 C.3        1 UNL1     0.1322
     17 O         -3.504146   0.705395   6.937643 O.3        1 UNL1     -0.4828
     18 C         -5.622127   1.454718   8.040069 C.ar        1 UNL1     -0.0067
     19 C         -6.0002   2.019234   6.804514 C.ar        1 UNL1     -0.0516
     20 C         -7.215409   2.700851   6.668031 C.ar        1 UNL1     -0.0198
     21 C         -8.056058   2.830875   7.759008 C.ar        1 UNL1     0.1169
     22 C         -7.726756   2.256988   8.980095 C.ar        1 UNL1     -0.0198
     23 C         -6.520085   1.559425   9.112031 C.ar        1 UNL1     -0.0516
     24 O         -9.213675   3.534006   7.597983 O.3        1 UNL1     -0.5068
     25 O         -5.750117   -2.439615   8.283244 O.2        1 UNL1     -0.2917
     26 O         -5.78691   -3.397464   5.763383 O.3        1 UNL1     -0.5058
     27 O         -0.226659   -0.190005   2.542136 O.3        1 UNL1     -0.3648
     28 O         0.268082   -1.953857   -0.566921 O.3        1 UNL1     -0.3841
     29 O         -2.460717   0.350732   -0.261352 O.3        1 UNL1     -0.3863
     30 O         -2.442027   -3.322953   -0.199737 O.3        1 UNL1     -0.3829
     31 H         0.628695   -1.841125   1.820914 H        1 UNL1     0.0937
     32 H         0.0   0.0   0.0 H        1 UNL1     0.0671
     33 H         -1.866272   -1.20248   -1.409353 H        1 UNL1     0.0649
     34 H         -3.839693   -1.843806   0.065946 H        1 UNL1     0.0683
     35 H         -3.19267   -2.943262   2.160417 H        1 UNL1     0.1085
     36 H         -4.817677   -2.965424   3.443633 H        1 UNL1     0.0691
     37 H         -2.779527   0.692783   4.48942 H        1 UNL1     0.0691
     38 H         -3.330106   -0.999959   9.028594 H        1 UNL1     0.0385
     39 H         -4.892709   -0.590721   9.76299 H        1 UNL1     0.0385
     40 H         -3.668077   1.407361   8.826351 H        1 UNL1     0.0789
     41 H         -5.353682   1.938763   5.935498 H        1 UNL1     0.0623
     42 H         -7.490236   3.142038   5.71313 H        1 UNL1     0.0654
     43 H         -8.384667   2.339853   9.836948 H        1 UNL1     0.0654
     44 H         -6.2997   1.114739   10.077707 H        1 UNL1     0.0623
     45 H         -8.987498   4.441934   7.338701 H        1 UNL1     0.2921
     46 H         -5.383175   -3.910058   6.481475 H        1 UNL1     0.2922
     47 H         0.516318   0.363722   2.264231 H        1 UNL1     0.2126
     48 H         1.201003   -1.888018   -0.285752 H        1 UNL1     0.2101
     49 H         -2.021855   0.933073   -0.901722 H        1 UNL1     0.2100
     50 H         -2.675287   -3.338043   -1.151092 H        1 UNL1     0.2102
@<TRIPOS>BOND
     1     1     2    1
     2     1     6    1
     3     2     3    1
     4     3     4    1
     5     3    29    1
     6     3    33    1
     7     4     5    1
     8     5     6    1
     9     5     7    1
    10     5    35    1
    11     7     8    1
    12     8     9   ar
    13     8    13   ar
    14     9    10   ar
    15     9    36    1
    16    10    11   ar
    17    10    26    1
    18    11    12   ar
    19    11    14    1
    20    12    13   ar
    21    12    17    1
    22    13    37    1
    23    14    15    1
    24    14    25    2
    25    15    16    1
    26    15    38    1
    27    15    39    1
    28    16    17    1
    29    16    18    1
    30    16    40    1
    31    18    19   ar
    32    18    23   ar
    33    19    20   ar
    34    19    41    1
    35    20    21   ar
    36    20    42    1
    37    21    22   ar
    38    21    24    1
    39    22    23   ar
    40    22    43    1
    41    23    44    1
    42    24    45    1
    43    26    46    1
    44    27    47    1
    45    28    48    1
    46    29    49    1
    47    30    50    1
    48     1    31    1
    49     1    27    1
    50     2    32    1
    51     2    28    1
    52     4    34    1
    53     4    30    1
