@<TRIPOS>MOLECULE
*****
 50 53 0 0 0
SMALL
GASTEIGER

@<TRIPOS>ATOM
     1 C         -0.331734   -1.327861   1.702217 C.3        1 UNL1     0.1889
     2 C         -0.4624   -0.975357   0.196027 C.3        1 UNL1     0.1342
     3 C         -1.9033   -0.963011   -0.337001 C.3        1 UNL1     0.1174
     4 C         -2.789488   -2.022117   0.323365 C.3        1 UNL1     0.1456
     5 C         -2.637684   -2.047021   1.855259 C.3        1 UNL1     0.2326
     6 O         -1.272738   -2.264957   2.204967 O.3        1 UNL1     -0.3076
     7 O         -3.212566   -0.899809   2.506976 O.3        1 UNL1     -0.4605
     8 C         -3.72193   -1.114882   3.774975 C.ar        1 UNL1     0.1310
     9 C         -4.538027   -2.187848   4.149182 C.ar        1 UNL1     0.0226
     10 C         -4.990634   -2.327827   5.466548 C.ar        1 UNL1     0.1343
     11 C         -4.6182   -1.41027   6.447988 C.ar        1 UNL1     0.1007
     12 C         -3.8373   -0.312209   6.077528 C.ar        1 UNL1     0.1389
     13 C         -3.384513   -0.17025   4.752287 C.ar        1 UNL1     0.0229
     14 C         -4.998477   -1.555649   7.87221 C.2        1 UNL1     0.1740
     15 C         -4.329435   -0.606969   8.822966 C.3        1 UNL1     0.0520
     16 C         -4.260515   0.764787   8.166084 C.3        1 UNL1     0.1322
     17 O         -3.502243   0.707612   6.937742 O.3        1 UNL1     -0.4828
     18 C         -5.619899   1.456955   8.040778 C.ar        1 UNL1     -0.0067
     19 C         -5.999397   2.019276   6.804659 C.ar        1 UNL1     -0.0516
     20 C         -7.214805   2.70057   6.668342 C.ar        1 UNL1     -0.0198
     21 C         -8.05424   2.832452   7.760031 C.ar        1 UNL1     0.1169
     22 C         -7.723529   2.260731   8.981754 C.ar        1 UNL1     -0.0198
     23 C         -6.516662   1.563483   9.11356 C.ar        1 UNL1     -0.0516
     24 O         -9.212086   3.535219   7.59907 O.3        1 UNL1     -0.5068
     25 O         -5.747026   -2.437306   8.285538 O.2        1 UNL1     -0.2917
     26 O         -5.784708   -3.396152   5.766069 O.3        1 UNL1     -0.5058
     27 O         -0.226346   -0.189401   2.542209 O.3        1 UNL1     -0.3648
     28 O         0.268054   -1.953988   -0.566486 O.3        1 UNL1     -0.3841
     29 O         -2.460756   0.350617   -0.261137 O.3        1 UNL1     -0.3863
     30 O         -2.44198   -3.323053   -0.198644 O.3        1 UNL1     -0.3829
     31 H         0.628956   -1.840675   1.821279 H        1 UNL1     0.0937
     32 H         0.0   0.0   0.0 H        1 UNL1     0.0671
     33 H         -1.866418   -1.202857   -1.408838 H        1 UNL1     0.0649
     34 H         -3.839646   -1.843872   0.066854 H        1 UNL1     0.0683
     35 H         -3.192345   -2.942811   2.161511 H        1 UNL1     0.1085
     36 H         -4.81655   -2.964836   3.445736 H        1 UNL1     0.0691
     37 H         -2.778668   0.694179   4.489214 H        1 UNL1     0.0691
     38 H         -3.326977   -0.996886   9.029289 H        1 UNL1     0.0385
     39 H         -4.889346   -0.587664   9.764191 H        1 UNL1     0.0385
     40 H         -3.665504   1.410288   8.826244 H        1 UNL1     0.0789
     41 H         -5.353847   1.937325   5.935061 H        1 UNL1     0.0623
     42 H         -7.490733   3.140062   5.712977 H        1 UNL1     0.0654
     43 H         -8.380485   2.345055   9.839197 H        1 UNL1     0.0654
     44 H         -6.295164   1.120508   10.079768 H        1 UNL1     0.0623
     45 H         -8.986295   4.44242   7.336921 H        1 UNL1     0.2921
     46 H         -5.379963   -3.909066   6.483365 H        1 UNL1     0.2922
     47 H         0.516691   0.364187   2.264187 H        1 UNL1     0.2126
     48 H         1.200888   -1.88855   -0.284934 H        1 UNL1     0.2101
     49 H         -2.021925   0.932835   -0.901639 H        1 UNL1     0.2100
     50 H         -2.675355   -3.338375   -1.149966 H        1 UNL1     0.2102
@<TRIPOS>BOND
     1     1     2    1
     2     1     6    1
     3     2     3    1
     4     3     4    1
     5     3    29    1
     6     3    33    1
     7     4     5    1
     8     5     6    1
     9     5     7    1
    10     5    35    1
    11     7     8    1
    12     8     9   ar
    13     8    13   ar
    14     9    10   ar
    15     9    36    1
    16    10    11   ar
    17    10    26    1
    18    11    12   ar
    19    11    14    1
    20    12    13   ar
    21    12    17    1
    22    13    37    1
    23    14    15    1
    24    14    25    2
    25    15    16    1
    26    15    38    1
    27    15    39    1
    28    16    17    1
    29    16    18    1
    30    16    40    1
    31    18    19   ar
    32    18    23   ar
    33    19    20   ar
    34    19    41    1
    35    20    21   ar
    36    20    42    1
    37    21    22   ar
    38    21    24    1
    39    22    23   ar
    40    22    43    1
    41    23    44    1
    42    24    45    1
    43    26    46    1
    44    27    47    1
    45    28    48    1
    46    29    49    1
    47    30    50    1
    48     1    31    1
    49     1    27    1
    50     2    32    1
    51     2    28    1
    52     4    34    1
    53     4    30    1
