@<TRIPOS>MOLECULE
*****
 50 53 0 0 0
SMALL
GASTEIGER

@<TRIPOS>ATOM
     1 C         1.680061   -0.952645   -1.020131 C.3        1 UNL1     0.1889
     2 C         0.763663   -0.757   0.217559 C.3        1 UNL1     0.1342
     3 C         1.502308   -0.367434   1.507175 C.3        1 UNL1     0.1174
     4 C         2.88266   -1.019276   1.620529 C.3        1 UNL1     0.1456
     5 C         3.696273   -0.90885   0.318146 C.3        1 UNL1     0.2326
     6 O         2.968174   -1.49101   -0.760664 O.3        1 UNL1     -0.3076
     7 O         4.151014   0.427565   0.037918 O.3        1 UNL1     -0.4605
     8 C         3.163045   1.379463   -0.139095 C.ar        1 UNL1     0.1310
     9 C         2.200869   1.369564   -1.154683 C.ar        1 UNL1     0.0226
     10 C         1.228105   2.372749   -1.239848 C.ar        1 UNL1     0.1343
     11 C         1.179263   3.398219   -0.296521 C.ar        1 UNL1     0.1007
     12 C         2.159793   3.441443   0.698203 C.ar        1 UNL1     0.1389
     13 C         3.1394   2.434086   0.782063 C.ar        1 UNL1     0.0229
     14 C         0.122879   4.436565   -0.28976 C.2        1 UNL1     0.1740
     15 C         0.093118   5.324646   0.919362 C.3        1 UNL1     0.0520
     16 C         1.52684   5.662471   1.304423 C.3        1 UNL1     0.1322
     17 O         2.271226   4.463258   1.612394 O.3        1 UNL1     -0.4828
     18 C         2.222975   6.606173   0.320783 C.ar        1 UNL1     -0.0067
     19 C         1.446827   7.48165   -0.466203 C.ar        1 UNL1     -0.0516
     20 C         2.048006   8.32387   -1.409184 C.ar        1 UNL1     -0.0198
     21 C         3.420588   8.294822   -1.579483 C.ar        1 UNL1     0.1169
     22 C         4.214812   7.467687   -0.795967 C.ar        1 UNL1     -0.0198
     23 C         3.615627   6.638718   0.159985 C.ar        1 UNL1     -0.0516
     24 O         3.966873   9.101826   -2.533798 O.3        1 UNL1     -0.5068
     25 O         -0.734383   4.534618   -1.163815 O.2        1 UNL1     -0.2917
     26 O         0.319009   2.305694   -2.255049 O.3        1 UNL1     -0.5058
     27 O         1.749027   0.189626   -1.85873 O.3        1 UNL1     -0.3648
     28 O         0.075107   -1.994766   0.475494 O.3        1 UNL1     -0.3841
     29 O         1.547121   1.053071   1.656473 O.3        1 UNL1     -0.3863
     30 O         2.721322   -2.416115   1.949924 O.3        1 UNL1     -0.3829
     31 H         1.204052   -1.716925   -1.644127 H        1 UNL1     0.0937
     32 H         0.0   0.0   0.0 H        1 UNL1     0.0671
     33 H         0.908166   -0.731523   2.356971 H        1 UNL1     0.0649
     34 H         3.447048   -0.559912   2.439585 H        1 UNL1     0.0683
     35 H         4.569034   -1.549482   0.496353 H        1 UNL1     0.1085
     36 H         2.151067   0.569581   -1.885208 H        1 UNL1     0.0691
     37 H         3.892319   2.491238   1.565223 H        1 UNL1     0.0691
     38 H         -0.412271   4.775714   1.721099 H        1 UNL1     0.0385
     39 H         -0.496628   6.219494   0.693029 H        1 UNL1     0.0385
     40 H         1.485913   6.211849   2.254702 H        1 UNL1     0.0789
     41 H         0.366687   7.516716   -0.357956 H        1 UNL1     0.0623
     42 H         1.437561   8.985908   -2.018342 H        1 UNL1     0.0654
     43 H         5.292022   7.447929   -0.910582 H        1 UNL1     0.0654
     44 H         4.267529   6.013043   0.761982 H        1 UNL1     0.0623
     45 H         4.822909   9.424892   -2.208916 H        1 UNL1     0.2921
     46 H         0.059567   1.381519   -2.396476 H        1 UNL1     0.2922
     47 H         1.959761   0.976183   -1.336448 H        1 UNL1     0.2126
     48 H         -0.318029   -1.915822   1.365969 H        1 UNL1     0.2101
     49 H         1.428247   1.290715   2.589847 H        1 UNL1     0.2100
     50 H         2.498523   -2.477615   2.901917 H        1 UNL1     0.2102
@<TRIPOS>BOND
     1     1     2    1
     2     1     6    1
     3     2     3    1
     4     3     4    1
     5     3    29    1
     6     3    33    1
     7     4     5    1
     8     5     6    1
     9     5     7    1
    10     5    35    1
    11     7     8    1
    12     8     9   ar
    13     8    13   ar
    14     9    10   ar
    15     9    36    1
    16    10    11   ar
    17    10    26    1
    18    11    12   ar
    19    11    14    1
    20    12    13   ar
    21    12    17    1
    22    13    37    1
    23    14    15    1
    24    14    25    2
    25    15    16    1
    26    15    38    1
    27    15    39    1
    28    16    17    1
    29    16    18    1
    30    16    40    1
    31    18    19   ar
    32    18    23   ar
    33    19    20   ar
    34    19    41    1
    35    20    21   ar
    36    20    42    1
    37    21    22   ar
    38    21    24    1
    39    22    23   ar
    40    22    43    1
    41    23    44    1
    42    24    45    1
    43    26    46    1
    44    27    47    1
    45    28    48    1
    46    29    49    1
    47    30    50    1
    48     1    31    1
    49     1    27    1
    50     2    32    1
    51     2    28    1
    52     4    34    1
    53     4    30    1
