@<TRIPOS>MOLECULE
*****
 50 53 0 0 0
SMALL
GASTEIGER

@<TRIPOS>ATOM
     1 C         -0.211102   1.068843   -1.893097 C.3        1 UNL1     0.1889
     2 C         0.051242   1.033856   -0.363426 C.3        1 UNL1     0.1342
     3 C         -0.899949   1.905861   0.470425 C.3        1 UNL1     0.1174
     4 C         -1.308067   3.194036   -0.248714 C.3        1 UNL1     0.1456
     5 C         -1.726348   2.94725   -1.709707 C.3        1 UNL1     0.2326
     6 O         -0.66667   2.307443   -2.417236 O.3        1 UNL1     -0.3076
     7 O         -2.986101   2.263143   -1.837539 O.3        1 UNL1     -0.4605
     8 C         -2.948449   1.038449   -2.479594 C.ar        1 UNL1     0.1310
     9 C         -1.786899   0.332166   -2.810149 C.ar        1 UNL1     0.0226
     10 C         -1.853427   -0.912895   -3.446782 C.ar        1 UNL1     0.1343
     11 C         -3.084947   -1.493377   -3.747181 C.ar        1 UNL1     0.1007
     12 C         -4.250955   -0.779106   -3.45904 C.ar        1 UNL1     0.1389
     13 C         -4.183731   0.473969   -2.821298 C.ar        1 UNL1     0.0229
     14 C         -3.215017   -2.843238   -4.343093 C.2        1 UNL1     0.1740
     15 C         -4.607536   -3.400086   -4.391685 C.3        1 UNL1     0.0520
     16 C         -5.561956   -2.278038   -4.776455 C.3        1 UNL1     0.1322
     17 O         -5.5108   -1.206811   -3.808505 O.3        1 UNL1     -0.4828
     18 C         -5.425268   -1.82484   -6.232014 C.ar        1 UNL1     -0.0067
     19 C         -4.458136   -0.855144   -6.567513 C.ar        1 UNL1     -0.0516
     20 C         -4.338692   -0.384009   -7.880421 C.ar        1 UNL1     -0.0198
     21 C         -5.18342   -0.868172   -8.863196 C.ar        1 UNL1     0.1169
     22 C         -6.123377   -1.847811   -8.570575 C.ar        1 UNL1     -0.0198
     23 C         -6.230677   -2.332559   -7.261544 C.ar        1 UNL1     -0.0516
     24 O         -5.062897   -0.358224   -10.122493 O.3        1 UNL1     -0.5068
     25 O         -2.254784   -3.517058   -4.706967 O.2        1 UNL1     -0.2917
     26 O         -0.683635   -1.549636   -3.742979 O.3        1 UNL1     -0.5058
     27 O         -0.997554   -0.017093   -2.356804 O.3        1 UNL1     -0.3648
     28 O         1.389447   1.505338   -0.119258 O.3        1 UNL1     -0.3841
     29 O         -2.022032   1.144305   0.921084 O.3        1 UNL1     -0.3863
     30 O         -0.197608   4.117259   -0.233527 O.3        1 UNL1     -0.3829
     31 H         0.759637   0.926154   -2.380318 H        1 UNL1     0.0937
     32 H         0.0   0.0   0.0 H        1 UNL1     0.0671
     33 H         -0.366111   2.206644   1.382711 H        1 UNL1     0.0649
     34 H         -2.133138   3.676203   0.287171 H        1 UNL1     0.0683
     35 H         -1.827167   3.955769   -2.12995 H        1 UNL1     0.1085
     36 H         -0.801013   0.703729   -2.553072 H        1 UNL1     0.0691
     37 H         -5.106018   1.010366   -2.608795 H        1 UNL1     0.0691
     38 H         -4.841608   -3.793965   -3.396901 H        1 UNL1     0.0385
     39 H         -4.637022   -4.231364   -5.104346 H        1 UNL1     0.0385
     40 H         -6.581794   -2.676939   -4.690857 H        1 UNL1     0.0789
     41 H         -3.78928   -0.452608   -5.812366 H        1 UNL1     0.0623
     42 H         -3.596919   0.372554   -8.124137 H        1 UNL1     0.0654
     43 H         -6.779815   -2.24484   -9.335669 H        1 UNL1     0.0654
     44 H         -6.968924   -3.105521   -7.070846 H        1 UNL1     0.0623
     45 H         -5.402883   0.551234   -10.118932 H        1 UNL1     0.2921
     46 H         -0.824928   -2.509439   -3.727933 H        1 UNL1     0.2922
     47 H         -0.61305   -0.856412   -2.067737 H        1 UNL1     0.2126
     48 H         1.993858   0.799822   -0.420369 H        1 UNL1     0.2101
     49 H         -2.079158   0.313927   0.422081 H        1 UNL1     0.2100
     50 H         -0.050354   4.39653   0.693855 H        1 UNL1     0.2102
@<TRIPOS>BOND
     1     1     2    1
     2     1     6    1
     3     2     3    1
     4     3     4    1
     5     3    29    1
     6     3    33    1
     7     4     5    1
     8     5     6    1
     9     5     7    1
    10     5    35    1
    11     7     8    1
    12     8     9   ar
    13     8    13   ar
    14     9    10   ar
    15     9    36    1
    16    10    11   ar
    17    10    26    1
    18    11    12   ar
    19    11    14    1
    20    12    13   ar
    21    12    17    1
    22    13    37    1
    23    14    15    1
    24    14    25    2
    25    15    16    1
    26    15    38    1
    27    15    39    1
    28    16    17    1
    29    16    18    1
    30    16    40    1
    31    18    19   ar
    32    18    23   ar
    33    19    20   ar
    34    19    41    1
    35    20    21   ar
    36    20    42    1
    37    21    22   ar
    38    21    24    1
    39    22    23   ar
    40    22    43    1
    41    23    44    1
    42    24    45    1
    43    26    46    1
    44    27    47    1
    45    28    48    1
    46    29    49    1
    47    30    50    1
    48     1    31    1
    49     1    27    1
    50     2    32    1
    51     2    28    1
    52     4    34    1
    53     4    30    1
