@<TRIPOS>MOLECULE
*****
 50 53 0 0 0
SMALL
GASTEIGER

@<TRIPOS>ATOM
     1 C         -1.673596   -0.729374   1.199123 C.3        1 UNL1     0.1889
     2 C         -0.660501   0.374185   0.792014 C.3        1 UNL1     0.1342
     3 C         0.197443   0.914467   1.94635 C.3        1 UNL1     0.1174
     4 C         -0.560206   0.965638   3.275436 C.3        1 UNL1     0.1456
     5 C         -1.336292   -0.332627   3.562772 C.3        1 UNL1     0.2326
     6 O         -2.240971   -0.604598   2.494851 O.3        1 UNL1     -0.3076
     7 O         -0.486768   -1.449361   3.882986 O.3        1 UNL1     -0.4605
     8 C         -1.003069   -2.702609   3.606706 C.ar        1 UNL1     0.1310
     9 C         -0.263398   -3.888624   3.547084 C.ar        1 UNL1     0.0226
     10 C         -0.882334   -5.114728   3.275996 C.ar        1 UNL1     0.1343
     11 C         -2.260943   -5.188017   3.081299 C.ar        1 UNL1     0.1007
     12 C         -3.004234   -4.004788   3.097773 C.ar        1 UNL1     0.1389
     13 C         -2.381273   -2.771718   3.367752 C.ar        1 UNL1     0.0229
     14 C         -2.978176   -6.467499   2.874767 C.2        1 UNL1     0.1740
     15 C         -4.476065   -6.384628   2.906505 C.3        1 UNL1     0.0520
     16 C         -4.904166   -5.119219   2.176144 C.3        1 UNL1     0.1322
     17 O         -4.348651   -3.947143   2.812313 O.3        1 UNL1     -0.4828
     18 C         -4.691285   -5.179982   0.661643 C.ar        1 UNL1     -0.0067
     19 C         -5.582142   -5.929994   -0.133385 C.ar        1 UNL1     -0.0516
     20 C         -5.3889   -6.045252   -1.515173 C.ar        1 UNL1     -0.0198
     21 C         -4.306904   -5.422723   -2.11147 C.ar        1 UNL1     0.1169
     22 C         -3.43124   -4.649661   -1.360188 C.ar        1 UNL1     -0.0198
     23 C         -3.634717   -4.519067   0.018797 C.ar        1 UNL1     -0.0516
     24 O         -4.129645   -5.588564   -3.453661 O.3        1 UNL1     -0.5068
     25 O         -2.41008   -7.550706   2.763336 O.2        1 UNL1     -0.2917
     26 O         -0.104064   -6.23447   3.230607 O.3        1 UNL1     -0.5058
     27 O         -1.202768   -2.045812   0.958089 O.3        1 UNL1     -0.3648
     28 O         -1.392975   1.486655   0.245571 O.3        1 UNL1     -0.3841
     29 O         1.430776   0.198692   2.03957 O.3        1 UNL1     -0.3863
     30 O         -1.493387   2.06747   3.246655 O.3        1 UNL1     -0.3829
     31 H         -2.535445   -0.62469   0.53104 H        1 UNL1     0.0937
     32 H         0.0   0.0   0.0 H        1 UNL1     0.0671
     33 H         0.477897   1.948187   1.700408 H        1 UNL1     0.0649
     34 H         0.138472   1.158694   4.097007 H        1 UNL1     0.0683
     35 H         -1.945188   -0.087721   4.442058 H        1 UNL1     0.1085
     36 H         0.802816   -3.906225   3.744566 H        1 UNL1     0.0691
     37 H         -2.982073   -1.864803   3.373877 H        1 UNL1     0.0691
     38 H         -4.784069   -6.357595   3.957185 H        1 UNL1     0.0385
     39 H         -4.895269   -7.287918   2.450308 H        1 UNL1     0.0385
     40 H         -5.98926   -5.017733   2.313226 H        1 UNL1     0.0789
     41 H         -6.43389   -6.435665   0.312117 H        1 UNL1     0.0623
     42 H         -6.076081   -6.636227   -2.115625 H        1 UNL1     0.0654
     43 H         -2.589244   -4.145533   -1.819326 H        1 UNL1     0.0654
     44 H         -2.937057   -3.898765   0.57318 H        1 UNL1     0.0623
     45 H         -4.528354   -4.83091   -3.911599 H        1 UNL1     0.2921
     46 H         -0.667604   -7.015625   3.113847 H        1 UNL1     0.2922
     47 H         -1.171361   -2.221316   0.007262 H        1 UNL1     0.2126
     48 H         -0.742768   2.197041   0.083355 H        1 UNL1     0.2101
     49 H         1.27679   -0.673973   2.435218 H        1 UNL1     0.2100
     50 H         -1.22078   2.674767   2.527914 H        1 UNL1     0.2102
@<TRIPOS>BOND
     1     1     2    1
     2     1     6    1
     3     2     3    1
     4     3     4    1
     5     3    29    1
     6     3    33    1
     7     4     5    1
     8     5     6    1
     9     5     7    1
    10     5    35    1
    11     7     8    1
    12     8     9   ar
    13     8    13   ar
    14     9    10   ar
    15     9    36    1
    16    10    11   ar
    17    10    26    1
    18    11    12   ar
    19    11    14    1
    20    12    13   ar
    21    12    17    1
    22    13    37    1
    23    14    15    1
    24    14    25    2
    25    15    16    1
    26    15    38    1
    27    15    39    1
    28    16    17    1
    29    16    18    1
    30    16    40    1
    31    18    19   ar
    32    18    23   ar
    33    19    20   ar
    34    19    41    1
    35    20    21   ar
    36    20    42    1
    37    21    22   ar
    38    21    24    1
    39    22    23   ar
    40    22    43    1
    41    23    44    1
    42    24    45    1
    43    26    46    1
    44    27    47    1
    45    28    48    1
    46    29    49    1
    47    30    50    1
    48     1    31    1
    49     1    27    1
    50     2    32    1
    51     2    28    1
    52     4    34    1
    53     4    30    1
