@<TRIPOS>MOLECULE
*****
 50 53 0 0 0
SMALL
GASTEIGER

@<TRIPOS>ATOM
     1 C         1.591799   -0.191661   1.483322 C.3        1 UNL1     0.1889
     2 C         0.192586   -0.562167   0.922193 C.3        1 UNL1     0.1342
     3 C         -0.970901   -0.335308   1.899587 C.3        1 UNL1     0.1174
     4 C         -0.586142   -0.612823   3.354944 C.3        1 UNL1     0.1456
     5 C         0.756465   0.032568   3.743843 C.3        1 UNL1     0.2326
     6 O         1.786575   -0.424575   2.870481 O.3        1 UNL1     -0.3076
     7 O         0.69513   1.466943   3.844482 O.3        1 UNL1     -0.4605
     8 C         1.590799   2.051968   4.721437 C.ar        1 UNL1     0.1310
     9 C         2.964091   1.789657   4.772059 C.ar        1 UNL1     0.0226
     10 C         3.793405   2.448095   5.687811 C.ar        1 UNL1     0.1343
     11 C         3.272908   3.403237   6.559951 C.ar        1 UNL1     0.1007
     12 C         1.896422   3.643853   6.54677 C.ar        1 UNL1     0.1389
     13 C         1.062347   2.979739   5.627693 C.ar        1 UNL1     0.0229
     14 C         4.116418   4.18925   7.489911 C.2        1 UNL1     0.1740
     15 C         3.427502   5.323405   8.190367 C.3        1 UNL1     0.0520
     16 C         2.033217   4.864381   8.594377 C.3        1 UNL1     0.1322
     17 O         1.262496   4.482932   7.433535 O.3        1 UNL1     -0.4828
     18 C         2.027571   3.833978   9.726173 C.ar        1 UNL1     -0.0067
     19 C         3.018928   3.898892   10.726779 C.ar        1 UNL1     -0.0516
     20 C         3.070937   2.944194   11.749427 C.ar        1 UNL1     -0.0198
     21 C         2.143879   1.917766   11.778349 C.ar        1 UNL1     0.1169
     22 C         1.135421   1.846281   10.826119 C.ar        1 UNL1     -0.0198
     23 C         1.072026   2.811418   9.813919 C.ar        1 UNL1     -0.0516
     24 O         2.248858   0.984818   12.767788 O.3        1 UNL1     -0.5068
     25 O         5.320826   3.99807   7.635984 O.2        1 UNL1     -0.2917
     26 O         5.123948   2.146039   5.686689 O.3        1 UNL1     -0.5058
     27 O         2.028431   1.103626   1.103362 O.3        1 UNL1     -0.3648
     28 O         0.195274   -1.959709   0.576397 O.3        1 UNL1     -0.3841
     29 O         -1.541968   0.9617   1.715783 O.3        1 UNL1     -0.3863
     30 O         -0.490581   -2.039776   3.555847 O.3        1 UNL1     -0.3829
     31 H         2.309233   -0.868635   1.006798 H        1 UNL1     0.0937
     32 H         -0.0   0.0   0.0 H        1 UNL1     0.0671
     33 H         -1.769244   -1.044915   1.641078 H        1 UNL1     0.0649
     34 H         -1.371217   -0.246549   4.025691 H        1 UNL1     0.0683
     35 H         0.972029   -0.382846   4.736235 H        1 UNL1     0.1085
     36 H         3.438534   1.099364   4.083205 H        1 UNL1     0.0691
     37 H         -0.006135   3.184001   5.638436 H        1 UNL1     0.0691
     38 H         3.379086   6.164422   7.490458 H        1 UNL1     0.0385
     39 H         4.02849   5.630529   9.053076 H        1 UNL1     0.0385
     40 H         1.507779   5.740992   8.996854 H        1 UNL1     0.0789
     41 H         3.763594   4.689519   10.721089 H        1 UNL1     0.0623
     42 H         3.847437   2.998236   12.508465 H        1 UNL1     0.0654
     43 H         0.39528   1.055319   10.848022 H        1 UNL1     0.0654
     44 H         0.26448   2.730884   9.092651 H        1 UNL1     0.0623
     45 H         2.026891   1.407895   13.613041 H        1 UNL1     0.2921
     46 H         5.45416   2.135884   6.598977 H        1 UNL1     0.2922
     47 H         2.839417   1.335874   1.576885 H        1 UNL1     0.2126
     48 H         0.313488   -2.453953   1.410352 H        1 UNL1     0.2101
     49 H         -2.49265   0.934068   1.908743 H        1 UNL1     0.2100
     50 H         -0.263368   -2.450756   2.69609 H        1 UNL1     0.2102
@<TRIPOS>BOND
     1     1     2    1
     2     1     6    1
     3     2     3    1
     4     3     4    1
     5     3    29    1
     6     3    33    1
     7     4     5    1
     8     5     6    1
     9     5     7    1
    10     5    35    1
    11     7     8    1
    12     8     9   ar
    13     8    13   ar
    14     9    10   ar
    15     9    36    1
    16    10    11   ar
    17    10    26    1
    18    11    12   ar
    19    11    14    1
    20    12    13   ar
    21    12    17    1
    22    13    37    1
    23    14    15    1
    24    14    25    2
    25    15    16    1
    26    15    38    1
    27    15    39    1
    28    16    17    1
    29    16    18    1
    30    16    40    1
    31    18    19   ar
    32    18    23   ar
    33    19    20   ar
    34    19    41    1
    35    20    21   ar
    36    20    42    1
    37    21    22   ar
    38    21    24    1
    39    22    23   ar
    40    22    43    1
    41    23    44    1
    42    24    45    1
    43    26    46    1
    44    27    47    1
    45    28    48    1
    46    29    49    1
    47    30    50    1
    48     1    31    1
    49     1    27    1
    50     2    32    1
    51     2    28    1
    52     4    34    1
    53     4    30    1
