@<TRIPOS>MOLECULE
*****
 50 53 0 0 0
SMALL
GASTEIGER

@<TRIPOS>ATOM
     1 C         -0.33217   -1.328065   1.701972 C.3        1 UNL1     0.1889
     2 C         -0.462631   -0.975287   0.195829 C.3        1 UNL1     0.1342
     3 C         -1.903484   -0.962538   -0.337318 C.3        1 UNL1     0.1174
     4 C         -2.78996   -2.021556   0.322802 C.3        1 UNL1     0.1456
     5 C         -2.63829   -2.046743   1.854704 C.3        1 UNL1     0.2326
     6 O         -1.273422   -2.265036   2.204491 O.3        1 UNL1     -0.3076
     7 O         -3.212975   -0.89951   2.50656 O.3        1 UNL1     -0.4605
     8 C         -3.729286   -1.116355   3.771443 C.ar        1 UNL1     0.1310
     9 C         -4.550443   -2.187834   4.138775 C.ar        1 UNL1     0.0226
     10 C         -5.010021   -2.329885   5.453504 C.ar        1 UNL1     0.1343
     11 C         -4.639734   -1.416012   6.439184 C.ar        1 UNL1     0.1007
     12 C         -3.853717   -0.319341   6.075489 C.ar        1 UNL1     0.1389
     13 C         -3.393914   -0.175291   4.752893 C.ar        1 UNL1     0.0229
     14 C         -5.02753   -1.563958   7.861112 C.2        1 UNL1     0.1740
     15 C         -4.360394   -0.619774   8.817665 C.3        1 UNL1     0.0520
     16 C         -4.2841   0.753476   8.164731 C.3        1 UNL1     0.1322
     17 O         -3.519896   0.697223   6.940028 O.3        1 UNL1     -0.4828
     18 C         -5.640766   1.450051   8.034484 C.ar        1 UNL1     -0.0067
     19 C         -6.01242   2.016728   6.797971 C.ar        1 UNL1     -0.0516
     20 C         -7.225091   2.702025   6.657401 C.ar        1 UNL1     -0.0198
     21 C         -8.069552   2.833583   7.745246 C.ar        1 UNL1     0.1169
     22 C         -7.746641   2.25769   8.967094 C.ar        1 UNL1     -0.0198
     23 C         -6.542536   1.556477   9.103071 C.ar        1 UNL1     -0.0516
     24 O         -9.224475   3.540245   7.580373 O.3        1 UNL1     -0.5068
     25 O         -5.780762   -2.444436   8.268402 O.2        1 UNL1     -0.2917
     26 O         -5.808769   -3.396596   5.746273 O.3        1 UNL1     -0.5058
     27 O         -0.226601   -0.189765   2.542159 O.3        1 UNL1     -0.3648
     28 O         0.267672   -1.953954   -0.566781 O.3        1 UNL1     -0.3841
     29 O         -2.460657   0.351201   -0.261286 O.3        1 UNL1     -0.3863
     30 O         -2.442695   -3.322483   -0.19939 O.3        1 UNL1     -0.3829
     31 H         0.628397   -1.84111   1.821032 H        1 UNL1     0.0937
     32 H         0.0   0.0   0.0 H        1 UNL1     0.0671
     33 H         -1.866564   -1.202217   -1.40919 H        1 UNL1     0.0649
     34 H         -3.840057   -1.843037   0.066232 H        1 UNL1     0.0683
     35 H         -3.193174   -2.94246   2.160763 H        1 UNL1     0.1085
     36 H         -4.827784   -2.962146   3.43192 H        1 UNL1     0.0691
     37 H         -2.784183   0.687996   4.495101 H        1 UNL1     0.0691
     38 H         -3.360147   -1.013238   9.027946 H        1 UNL1     0.0385
     39 H         -4.924924   -0.601239   9.756143 H        1 UNL1     0.0385
     40 H         -3.690454   1.395463   8.82953 H        1 UNL1     0.0789
     41 H         -5.362797   1.935103   5.931382 H        1 UNL1     0.0623
     42 H         -7.494943   3.144832   5.701831 H        1 UNL1     0.0654
     43 H         -8.407602   2.341753   9.821479 H        1 UNL1     0.0654
     44 H         -6.327178   1.110322   10.069203 H        1 UNL1     0.0623
     45 H         -8.994504   4.449221   7.328198 H        1 UNL1     0.2921
     46 H         -5.409655   -3.912009   6.464932 H        1 UNL1     0.2922
     47 H         0.516475   0.363793   2.264183 H        1 UNL1     0.2126
     48 H         1.200616   -1.888279   -0.285652 H        1 UNL1     0.2101
     49 H         -2.021704   0.933405   -0.901718 H        1 UNL1     0.2100
     50 H         -2.675993   -3.337599   -1.150734 H        1 UNL1     0.2102
@<TRIPOS>BOND
     1     1     2    1
     2     1     6    1
     3     2     3    1
     4     3     4    1
     5     3    29    1
     6     3    33    1
     7     4     5    1
     8     5     6    1
     9     5     7    1
    10     5    35    1
    11     7     8    1
    12     8     9   ar
    13     8    13   ar
    14     9    10   ar
    15     9    36    1
    16    10    11   ar
    17    10    26    1
    18    11    12   ar
    19    11    14    1
    20    12    13   ar
    21    12    17    1
    22    13    37    1
    23    14    15    1
    24    14    25    2
    25    15    16    1
    26    15    38    1
    27    15    39    1
    28    16    17    1
    29    16    18    1
    30    16    40    1
    31    18    19   ar
    32    18    23   ar
    33    19    20   ar
    34    19    41    1
    35    20    21   ar
    36    20    42    1
    37    21    22   ar
    38    21    24    1
    39    22    23   ar
    40    22    43    1
    41    23    44    1
    42    24    45    1
    43    26    46    1
    44    27    47    1
    45    28    48    1
    46    29    49    1
    47    30    50    1
    48     1    31    1
    49     1    27    1
    50     2    32    1
    51     2    28    1
    52     4    34    1
    53     4    30    1
