@<TRIPOS>MOLECULE
*****
 50 53 0 0 0
SMALL
GASTEIGER

@<TRIPOS>ATOM
     1 C         -0.33127   -1.327643   1.702477 C.3        1 UNL1     0.1889
     2 C         -0.462153   -0.975432   0.196238 C.3        1 UNL1     0.1342
     3 C         -1.903104   -0.963516   -0.336664 C.3        1 UNL1     0.1174
     4 C         -2.788984   -2.022715   0.323966 C.3        1 UNL1     0.1456
     5 C         -2.637037   -2.047318   1.855851 C.3        1 UNL1     0.2326
     6 O         -1.272009   -2.264873   2.205474 O.3        1 UNL1     -0.3076
     7 O         -3.21213   -0.900127   2.50742 O.3        1 UNL1     -0.4605
     8 C         -3.72133   -1.1151   3.775502 C.ar        1 UNL1     0.1310
     9 C         -4.537142   -2.188192   4.149968 C.ar        1 UNL1     0.0226
     10 C         -4.989599   -2.328049   5.467399 C.ar        1 UNL1     0.1343
     11 C         -4.617292   -1.410234   6.448646 C.ar        1 UNL1     0.1007
     12 C         -3.836683   -0.312054   6.077926 C.ar        1 UNL1     0.1389
     13 C         -3.384047   -0.170219   4.75262 C.ar        1 UNL1     0.0229
     14 C         -4.997407   -1.555455   7.872927 C.2        1 UNL1     0.1740
     15 C         -4.328503   -0.606453   8.823459 C.3        1 UNL1     0.0520
     16 C         -4.259963   0.765205   8.166333 C.3        1 UNL1     0.1322
     17 O         -3.501788   0.707995   6.937932 O.3        1 UNL1     -0.4828
     18 C         -5.619521   1.457033   8.041028 C.ar        1 UNL1     -0.0067
     19 C         -5.99931   2.018947   6.804814 C.ar        1 UNL1     -0.0516
     20 C         -7.214892   2.699931   6.668483 C.ar        1 UNL1     -0.0198
     21 C         -8.054211   2.831904   7.760249 C.ar        1 UNL1     0.1169
     22 C         -7.723208   2.260575   8.982075 C.ar        1 UNL1     -0.0198
     23 C         -6.516166   1.563635   9.113902 C.ar        1 UNL1     -0.0516
     24 O         -9.212238   3.534368   7.599259 O.3        1 UNL1     -0.5068
     25 O         -5.745712   -2.437216   8.286476 O.2        1 UNL1     -0.2917
     26 O         -5.783395   -3.396508   5.767177 O.3        1 UNL1     -0.5058
     27 O         -0.226074   -0.189012   2.542262 O.3        1 UNL1     -0.3648
     28 O         0.268462   -1.954023   -0.56617 O.3        1 UNL1     -0.3841
     29 O         -2.460862   0.349994   -0.260977 O.3        1 UNL1     -0.3863
     30 O         -2.441218   -3.32366   -0.197848 O.3        1 UNL1     -0.3829
     31 H         0.629551   -1.840211   1.821542 H        1 UNL1     0.0937
     32 H         0.0   0.0   0.0 H        1 UNL1     0.0671
     33 H         -1.866262   -1.20354   -1.408462 H        1 UNL1     0.0649
     34 H         -3.839207   -1.844761   0.067518 H        1 UNL1     0.0683
     35 H         -3.191461   -2.943185   2.162307 H        1 UNL1     0.1085
     36 H         -4.815545   -2.965367   3.446682 H        1 UNL1     0.0691
     37 H         -2.778428   0.694306   4.489343 H        1 UNL1     0.0691
     38 H         -3.325935   -0.996099   9.02976 H        1 UNL1     0.0385
     39 H         -4.888334   -0.587116   9.764731 H        1 UNL1     0.0385
     40 H         -3.665045   1.410961   8.826327 H        1 UNL1     0.0789
     41 H         -5.353857   1.936917   5.935152 H        1 UNL1     0.0623
     42 H         -7.491046   3.139112   5.71304 H        1 UNL1     0.0654
     43 H         -8.38007   2.344971   9.839584 H        1 UNL1     0.0654
     44 H         -6.294438   1.12096   10.080194 H        1 UNL1     0.0623
     45 H         -9.958553   2.943146   7.789489 H        1 UNL1     0.2921
     46 H         -5.378422   -3.909251   6.484466 H        1 UNL1     0.2922
     47 H         0.516808   0.364702   2.264078 H        1 UNL1     0.2126
     48 H         1.201246   -1.888562   -0.284457 H        1 UNL1     0.2101
     49 H         -2.022225   0.932204   -0.90162 H        1 UNL1     0.2100
     50 H         -2.674675   -3.339203   -1.149147 H        1 UNL1     0.2102
@<TRIPOS>BOND
     1     1     2    1
     2     1     6    1
     3     2     3    1
     4     3     4    1
     5     3    29    1
     6     3    33    1
     7     4     5    1
     8     5     6    1
     9     5     7    1
    10     5    35    1
    11     7     8    1
    12     8     9   ar
    13     8    13   ar
    14     9    10   ar
    15     9    36    1
    16    10    11   ar
    17    10    26    1
    18    11    12   ar
    19    11    14    1
    20    12    13   ar
    21    12    17    1
    22    13    37    1
    23    14    15    1
    24    14    25    2
    25    15    16    1
    26    15    38    1
    27    15    39    1
    28    16    17    1
    29    16    18    1
    30    16    40    1
    31    18    19   ar
    32    18    23   ar
    33    19    20   ar
    34    19    41    1
    35    20    21   ar
    36    20    42    1
    37    21    22   ar
    38    21    24    1
    39    22    23   ar
    40    22    43    1
    41    23    44    1
    42    24    45    1
    43    26    46    1
    44    27    47    1
    45    28    48    1
    46    29    49    1
    47    30    50    1
    48     1    31    1
    49     1    27    1
    50     2    32    1
    51     2    28    1
    52     4    34    1
    53     4    30    1
