@<TRIPOS>MOLECULE
*****
 50 53 0 0 0
SMALL
GASTEIGER

@<TRIPOS>ATOM
     1 C         0.811253   0.742101   1.887315 C.3        1 UNL1     0.1889
     2 C         0.949982   0.395358   0.38051 C.3        1 UNL1     0.1342
     3 C         2.074069   -0.599186   0.052217 C.3        1 UNL1     0.1174
     4 C         3.29711   -0.432504   0.957481 C.3        1 UNL1     0.1456
     5 C         2.918321   -0.310302   2.444744 C.3        1 UNL1     0.2326
     6 O         2.021107   0.782259   2.629633 O.3        1 UNL1     -0.3076
     7 O         2.437563   -1.540341   3.016754 O.3        1 UNL1     -0.4605
     8 C         2.903133   -1.84236   4.283859 C.ar        1 UNL1     0.1310
     9 C         3.143389   -0.913102   5.301728 C.ar        1 UNL1     0.0226
     10 C         3.599741   -1.320712   6.560894 C.ar        1 UNL1     0.1343
     11 C         3.804373   -2.671191   6.840489 C.ar        1 UNL1     0.1007
     12 C         3.607186   -3.60465   5.819433 C.ar        1 UNL1     0.1389
     13 C         3.150858   -3.194291   4.552626 C.ar        1 UNL1     0.0229
     14 C         4.20519   -3.164865   8.178318 C.2        1 UNL1     0.1740
     15 C         4.162205   -4.653634   8.360712 C.3        1 UNL1     0.0520
     16 C         4.690188   -5.309853   7.092418 C.3        1 UNL1     0.1322
     17 O         3.881404   -4.946107   5.951967 O.3        1 UNL1     -0.4828
     18 C         6.195939   -5.128775   6.885901 C.ar        1 UNL1     -0.0067
     19 C         6.847016   -5.852414   5.865774 C.ar        1 UNL1     -0.0516
     20 C         8.230623   -5.746135   5.680574 C.ar        1 UNL1     -0.0198
     21 C         8.973734   -4.927108   6.511722 C.ar        1 UNL1     0.1169
     22 C         8.356443   -4.176243   7.503686 C.ar        1 UNL1     -0.0198
     23 C         6.970267   -4.26819   7.677233 C.ar        1 UNL1     -0.0516
     24 O         10.324044   -4.878033   6.325562 O.3        1 UNL1     -0.5068
     25 O         4.481   -2.423475   9.117868 O.2        1 UNL1     -0.2917
     26 O         3.81574   -0.364367   7.509753 O.3        1 UNL1     -0.5058
     27 O         -0.186377   -0.016275   2.552436 O.3        1 UNL1     -0.3648
     28 O         1.226727   1.608791   -0.34316 O.3        1 UNL1     -0.3841
     29 O         1.576799   -1.938796   0.034883 O.3        1 UNL1     -0.3863
     30 O         4.019817   0.754197   0.56362 O.3        1 UNL1     -0.3829
     31 H         0.445031   1.77328   1.938595 H        1 UNL1     0.0937
     32 H         0.0   -0.0   0.0 H        1 UNL1     0.0671
     33 H         2.409399   -0.399128   -0.975037 H        1 UNL1     0.0649
     34 H         3.977957   -1.280805   0.826204 H        1 UNL1     0.0683
     35 H         3.860334   -0.036077   2.935959 H        1 UNL1     0.1085
     36 H         2.950169   0.145227   5.164884 H        1 UNL1     0.0691
     37 H         3.006167   -3.940551   3.774389 H        1 UNL1     0.0691
     38 H         3.12003   -4.934596   8.546342 H        1 UNL1     0.0385
     39 H         4.751828   -4.924302   9.243243 H        1 UNL1     0.0385
     40 H         4.539951   -6.39247   7.201446 H        1 UNL1     0.0789
     41 H         6.287396   -6.509083   5.20603 H        1 UNL1     0.0623
     42 H         8.722753   -6.318393   4.898053 H        1 UNL1     0.0654
     43 H         8.926761   -3.520232   8.150446 H        1 UNL1     0.0654
     44 H         6.519735   -3.659319   8.455141 H        1 UNL1     0.0623
     45 H         10.676214   -5.780171   6.395123 H        1 UNL1     0.2921
     46 H         3.909657   0.501086   7.081288 H        1 UNL1     0.2922
     47 H         -1.020645   0.026988   2.064598 H        1 UNL1     0.2126
     48 H         1.393239   2.301197   0.325107 H        1 UNL1     0.2101
     49 H         2.297627   -2.560842   0.222662 H        1 UNL1     0.2100
     50 H         4.40379   0.592981   -0.323108 H        1 UNL1     0.2102
@<TRIPOS>BOND
     1     1     2    1
     2     1     6    1
     3     2     3    1
     4     3     4    1
     5     3    29    1
     6     3    33    1
     7     4     5    1
     8     5     6    1
     9     5     7    1
    10     5    35    1
    11     7     8    1
    12     8     9   ar
    13     8    13   ar
    14     9    10   ar
    15     9    36    1
    16    10    11   ar
    17    10    26    1
    18    11    12   ar
    19    11    14    1
    20    12    13   ar
    21    12    17    1
    22    13    37    1
    23    14    15    1
    24    14    25    2
    25    15    16    1
    26    15    38    1
    27    15    39    1
    28    16    17    1
    29    16    18    1
    30    16    40    1
    31    18    19   ar
    32    18    23   ar
    33    19    20   ar
    34    19    41    1
    35    20    21   ar
    36    20    42    1
    37    21    22   ar
    38    21    24    1
    39    22    23   ar
    40    22    43    1
    41    23    44    1
    42    24    45    1
    43    26    46    1
    44    27    47    1
    45    28    48    1
    46    29    49    1
    47    30    50    1
    48     1    31    1
    49     1    27    1
    50     2    32    1
    51     2    28    1
    52     4    34    1
    53     4    30    1
