@<TRIPOS>MOLECULE
*****
 50 53 0 0 0
SMALL
GASTEIGER

@<TRIPOS>ATOM
     1 C         0.857746   -1.414139   -1.426635 C.3        1 UNL1     0.1889
     2 C         -0.352467   -0.695434   -0.771816 C.3        1 UNL1     0.1342
     3 C         -1.401242   -1.635559   -0.158055 C.3        1 UNL1     0.1174
     4 C         -1.566325   -2.936634   -0.947402 C.3        1 UNL1     0.1456
     5 C         -0.216448   -3.580095   -1.31367 C.3        1 UNL1     0.2326
     6 O         0.577167   -2.65625   -2.05499 O.3        1 UNL1     -0.3076
     7 O         0.476091   -4.141818   -0.183989 O.3        1 UNL1     -0.4605
     8 C         1.801336   -4.479443   -0.391985 C.ar        1 UNL1     0.1310
     9 C         2.396197   -5.69114   -0.024248 C.ar        1 UNL1     0.0226
     10 C         3.745982   -5.946104   -0.294392 C.ar        1 UNL1     0.1343
     11 C         4.528394   -5.003994   -0.960802 C.ar        1 UNL1     0.1007
     12 C         3.956268   -3.774027   -1.296416 C.ar        1 UNL1     0.1389
     13 C         2.59974   -3.516868   -1.022317 C.ar        1 UNL1     0.0229
     14 C         5.936635   -5.254245   -1.34601 C.2        1 UNL1     0.1740
     15 C         6.555096   -4.227541   -2.248746 C.3        1 UNL1     0.0520
     16 C         6.100581   -2.848106   -1.792092 C.3        1 UNL1     0.1322
     17 O         4.661832   -2.734712   -1.857015 O.3        1 UNL1     -0.4828
     18 C         6.712163   -2.407521   -0.45996 C.ar        1 UNL1     -0.0067
     19 C         6.264261   -3.001535   0.737848 C.ar        1 UNL1     -0.0516
     20 C         6.768418   -2.588396   1.976842 C.ar        1 UNL1     -0.0198
     21 C         7.713268   -1.579403   2.031793 C.ar        1 UNL1     0.1169
     22 C         8.198465   -0.99835   0.867404 C.ar        1 UNL1     -0.0198
     23 C         7.707995   -1.424095   -0.372852 C.ar        1 UNL1     -0.0516
     24 O         8.153301   -1.177301   3.258612 O.3        1 UNL1     -0.5068
     25 O         6.554843   -6.266776   -1.02807 O.2        1 UNL1     -0.2917
     26 O         4.265679   -7.147238   0.091322 O.3        1 UNL1     -0.5058
     27 O         1.99089   -1.500974   -0.577381 O.3        1 UNL1     -0.3648
     28 O         -1.017463   0.088405   -1.779826 O.3        1 UNL1     -0.3841
     29 O         -1.132687   -1.859163   1.22759 O.3        1 UNL1     -0.3863
     30 O         -2.295491   -2.663541   -2.163719 O.3        1 UNL1     -0.3829
     31 H         1.189217   -0.777595   -2.254293 H        1 UNL1     0.0937
     32 H         0.0   0.0   0.0 H        1 UNL1     0.0671
     33 H         -2.371582   -1.12051   -0.18778 H        1 UNL1     0.0649
     34 H         -2.16279   -3.651418   -0.369723 H        1 UNL1     0.0683
     35 H         -0.487829   -4.390943   -2.001243 H        1 UNL1     0.1085
     36 H         1.827676   -6.485825   0.446263 H        1 UNL1     0.0691
     37 H         2.178518   -2.550978   -1.292729 H        1 UNL1     0.0691
     38 H         6.216952   -4.43706   -3.269181 H        1 UNL1     0.0385
     39 H         7.64482   -4.334746   -2.220722 H        1 UNL1     0.0385
     40 H         6.466707   -2.124835   -2.533275 H        1 UNL1     0.0789
     41 H         5.516552   -3.789147   0.722075 H        1 UNL1     0.0623
     42 H         6.406341   -3.04596   2.8942 H        1 UNL1     0.0654
     43 H         8.949343   -0.217869   0.898097 H        1 UNL1     0.0654
     44 H         8.117163   -0.955567   -1.262744 H        1 UNL1     0.0623
     45 H         7.837781   -1.813082   3.921142 H        1 UNL1     0.2921
     46 H         3.543778   -7.774543   0.254909 H        1 UNL1     0.2922
     47 H         1.94728   -0.821286   0.109629 H        1 UNL1     0.2126
     48 H         -0.353907   0.71262   -2.131652 H        1 UNL1     0.2101
     49 H         -0.661921   -2.700184   1.340978 H        1 UNL1     0.2100
     50 H         -1.711266   -2.145936   -2.755732 H        1 UNL1     0.2102
@<TRIPOS>BOND
     1     1     2    1
     2     1     6    1
     3     2     3    1
     4     3     4    1
     5     3    29    1
     6     3    33    1
     7     4     5    1
     8     5     6    1
     9     5     7    1
    10     5    35    1
    11     7     8    1
    12     8     9   ar
    13     8    13   ar
    14     9    10   ar
    15     9    36    1
    16    10    11   ar
    17    10    26    1
    18    11    12   ar
    19    11    14    1
    20    12    13   ar
    21    12    17    1
    22    13    37    1
    23    14    15    1
    24    14    25    2
    25    15    16    1
    26    15    38    1
    27    15    39    1
    28    16    17    1
    29    16    18    1
    30    16    40    1
    31    18    19   ar
    32    18    23   ar
    33    19    20   ar
    34    19    41    1
    35    20    21   ar
    36    20    42    1
    37    21    22   ar
    38    21    24    1
    39    22    23   ar
    40    22    43    1
    41    23    44    1
    42    24    45    1
    43    26    46    1
    44    27    47    1
    45    28    48    1
    46    29    49    1
    47    30    50    1
    48     1    31    1
    49     1    27    1
    50     2    32    1
    51     2    28    1
    52     4    34    1
    53     4    30    1
