@<TRIPOS>MOLECULE
*****
 50 53 0 0 0
SMALL
GASTEIGER

@<TRIPOS>ATOM
     1 C         0.194648   -1.866361   1.11786 C.3        1 UNL1     0.1889
     2 C         0.395918   -1.01032   -0.161446 C.3        1 UNL1     0.1342
     3 C         -0.235324   -1.59869   -1.432594 C.3        1 UNL1     0.1174
     4 C         -0.181627   -3.128045   -1.46871 C.3        1 UNL1     0.1456
     5 C         -0.624181   -3.765728   -0.139097 C.3        1 UNL1     0.2326
     6 O         0.182808   -3.273608   0.928356 O.3        1 UNL1     -0.3076
     7 O         -2.03538   -3.641327   0.114601 O.3        1 UNL1     -0.4605
     8 C         -2.391906   -2.815333   1.165387 C.ar        1 UNL1     0.1310
     9 C         -3.420493   -3.065781   2.080036 C.ar        1 UNL1     0.0226
     10 C         -3.694196   -2.173566   3.12356 C.ar        1 UNL1     0.1343
     11 C         -2.929693   -1.019883   3.292049 C.ar        1 UNL1     0.1007
     12 C         -1.926504   -0.7384   2.360833 C.ar        1 UNL1     0.1389
     13 C         -1.653218   -1.634353   1.310112 C.ar        1 UNL1     0.0229
     14 C         -3.120804   -0.085572   4.425493 C.2        1 UNL1     0.1740
     15 C         -2.071445   0.976448   4.575511 C.3        1 UNL1     0.0520
     16 C         -1.703767   1.489574   3.190061 C.3        1 UNL1     0.1322
     17 O         -1.185458   0.420507   2.368161 O.3        1 UNL1     -0.4828
     18 C         -2.80538   2.321237   2.528617 C.ar        1 UNL1     -0.0067
     19 C         -2.486383   3.143118   1.428177 C.ar        1 UNL1     -0.0516
     20 C         -3.459691   3.95232   0.82999 C.ar        1 UNL1     -0.0198
     21 C         -4.750951   3.954139   1.326448 C.ar        1 UNL1     0.1169
     22 C         -5.103618   3.130546   2.387655 C.ar        1 UNL1     -0.0198
     23 C         -4.134888   2.307448   2.974277 C.ar        1 UNL1     -0.0516
     24 O         -5.662771   4.783446   0.742296 O.3        1 UNL1     -0.5068
     25 O         -4.024022   -0.1987   5.250044 O.2        1 UNL1     -0.2917
     26 O         -4.711664   -2.475749   3.980899 O.3        1 UNL1     -0.5058
     27 O         -0.893738   -1.436753   1.920131 O.3        1 UNL1     -0.3648
     28 O         1.808779   -0.880156   -0.405547 O.3        1 UNL1     -0.3841
     29 O         -1.555161   -1.086503   -1.627093 O.3        1 UNL1     -0.3863
     30 O         1.169616   -3.547934   -1.757718 O.3        1 UNL1     -0.3829
     31 H         1.075711   -1.70016   1.747292 H        1 UNL1     0.0937
     32 H         0.0   0.0   0.0 H        1 UNL1     0.0671
     33 H         0.346628   -1.239852   -2.292994 H        1 UNL1     0.0649
     34 H         -0.814857   -3.505456   -2.279254 H        1 UNL1     0.0683
     35 H         -0.378877   -4.82823   -0.26073 H        1 UNL1     0.1085
     36 H         -4.014166   -3.972295   2.03638 H        1 UNL1     0.0691
     37 H         -0.867667   -1.391583   0.597747 H        1 UNL1     0.0691
     38 H         -1.207113   0.520486   5.070038 H        1 UNL1     0.0385
     39 H         -2.455783   1.771859   5.22311 H        1 UNL1     0.0385
     40 H         -0.855694   2.176575   3.313851 H        1 UNL1     0.0789
     41 H         -1.47788   3.166472   1.025651 H        1 UNL1     0.0623
     42 H         -3.198478   4.590623   -0.010455 H        1 UNL1     0.0654
     43 H         -6.115444   3.112932   2.774707 H        1 UNL1     0.0654
     44 H         -4.447985   1.668942   3.79472 H        1 UNL1     0.0623
     45 H         -5.182726   5.479796   0.265463 H        1 UNL1     0.2921
     46 H         -5.47778   -1.913633   3.784674 H        1 UNL1     0.2922
     47 H         -1.710573   -1.870437   1.636301 H        1 UNL1     0.2126
     48 H         1.938052   -0.992806   -1.366968 H        1 UNL1     0.2101
     49 H         -2.054884   -1.138169   -0.796791 H        1 UNL1     0.2100
     50 H         1.129619   -4.231321   -2.458499 H        1 UNL1     0.2102
@<TRIPOS>BOND
     1     1     2    1
     2     1     6    1
     3     2     3    1
     4     3     4    1
     5     3    29    1
     6     3    33    1
     7     4     5    1
     8     5     6    1
     9     5     7    1
    10     5    35    1
    11     7     8    1
    12     8     9   ar
    13     8    13   ar
    14     9    10   ar
    15     9    36    1
    16    10    11   ar
    17    10    26    1
    18    11    12   ar
    19    11    14    1
    20    12    13   ar
    21    12    17    1
    22    13    37    1
    23    14    15    1
    24    14    25    2
    25    15    16    1
    26    15    38    1
    27    15    39    1
    28    16    17    1
    29    16    18    1
    30    16    40    1
    31    18    19   ar
    32    18    23   ar
    33    19    20   ar
    34    19    41    1
    35    20    21   ar
    36    20    42    1
    37    21    22   ar
    38    21    24    1
    39    22    23   ar
    40    22    43    1
    41    23    44    1
    42    24    45    1
    43    26    46    1
    44    27    47    1
    45    28    48    1
    46    29    49    1
    47    30    50    1
    48     1    31    1
    49     1    27    1
    50     2    32    1
    51     2    28    1
    52     4    34    1
    53     4    30    1
