@<TRIPOS>MOLECULE
*****
 50 53 0 0 0
SMALL
GASTEIGER

@<TRIPOS>ATOM
     1 C         -1.983507   -0.839618   -0.362692 C.3        1 UNL1     0.1889
     2 C         -0.9056   -0.231381   0.57438 C.3        1 UNL1     0.1342
     3 C         -0.526592   -1.113887   1.773547 C.3        1 UNL1     0.1174
     4 C         -1.71183   -1.913807   2.319859 C.3        1 UNL1     0.1456
     5 C         -2.523116   -2.601464   1.206618 C.3        1 UNL1     0.2326
     6 O         -2.980127   -1.630621   0.26775 O.3        1 UNL1     -0.3076
     7 O         -1.831598   -3.702963   0.590321 O.3        1 UNL1     -0.4605
     8 C         -2.347844   -4.145023   -0.614504 C.ar        1 UNL1     0.1310
     9 C         -2.593573   -5.480965   -0.94943 C.ar        1 UNL1     0.0226
     10 C         -3.135914   -5.82743   -2.192704 C.ar        1 UNL1     0.1343
     11 C         -3.468179   -4.843548   -3.122982 C.ar        1 UNL1     0.1007
     12 C         -3.189333   -3.509074   -2.816051 C.ar        1 UNL1     0.1389
     13 C         -2.641556   -3.161172   -1.566917 C.ar        1 UNL1     0.0229
     14 C         -4.120901   -5.146917   -4.417615 C.2        1 UNL1     0.1740
     15 C         -4.608429   -3.958482   -5.193173 C.3        1 UNL1     0.0520
     16 C         -3.570923   -2.850097   -5.079066 C.3        1 UNL1     0.1322
     17 O         -3.375557   -2.470696   -3.698864 O.3        1 UNL1     -0.4828
     18 C         -2.278321   -3.134521   -5.847836 C.ar        1 UNL1     -0.0067
     19 C         -1.884453   -2.265399   -6.885963 C.ar        1 UNL1     -0.0516
     20 C         -0.733294   -2.522476   -7.64009 C.ar        1 UNL1     -0.0198
     21 C         0.026734   -3.646743   -7.371374 C.ar        1 UNL1     0.1169
     22 C         -0.316939   -4.503367   -6.333626 C.ar        1 UNL1     -0.0198
     23 C         -1.457842   -4.236574   -5.567324 C.ar        1 UNL1     -0.0516
     24 O         1.120043   -3.884727   -8.1514 O.3        1 UNL1     -0.5068
     25 O         -4.334137   -6.288952   -4.816075 O.2        1 UNL1     -0.2917
     26 O         -3.350269   -7.148558   -2.457769 O.3        1 UNL1     -0.5058
     27 O         -1.441177   -1.489954   -1.500993 O.3        1 UNL1     -0.3648
     28 O         -1.406546   1.012193   1.099054 O.3        1 UNL1     -0.3841
     29 O         0.599651   -1.93643   1.461884 O.3        1 UNL1     -0.3863
     30 O         -2.585956   -1.026197   3.050436 O.3        1 UNL1     -0.3829
     31 H         -2.548926   0.002254   -0.776978 H        1 UNL1     0.0937
     32 H         0.0   0.0   0.0 H        1 UNL1     0.0671
     33 H         -0.189371   -0.452184   2.583578 H        1 UNL1     0.0649
     34 H         -1.357531   -2.67011   3.028999 H        1 UNL1     0.0683
     35 H         -3.410319   -2.986204   1.725007 H        1 UNL1     0.1085
     36 H         -2.409203   -6.287737   -0.24854 H        1 UNL1     0.0691
     37 H         -2.432823   -2.115185   -1.352826 H        1 UNL1     0.0691
     38 H         -5.565497   -3.649797   -4.759282 H        1 UNL1     0.0385
     39 H         -4.784138   -4.255734   -6.232666 H        1 UNL1     0.0385
     40 H         -3.999293   -1.955832   -5.551623 H        1 UNL1     0.0789
     41 H         -2.469081   -1.381156   -7.122553 H        1 UNL1     0.0623
     42 H         -0.446617   -1.851142   -8.445781 H        1 UNL1     0.0654
     43 H         0.279488   -5.378495   -6.104855 H        1 UNL1     0.0654
     44 H         -1.690706   -4.921309   -4.757535 H        1 UNL1     0.0623
     45 H         0.836446   -3.902282   -9.079829 H        1 UNL1     0.2921
     46 H         -2.677804   -7.466818   -3.080596 H        1 UNL1     0.2922
     47 H         -0.79414   -0.917905   -1.93684 H        1 UNL1     0.2126
     48 H         -2.044465   1.355368   0.444056 H        1 UNL1     0.2101
     49 H         0.620435   -2.120353   0.509238 H        1 UNL1     0.2100
     50 H         -2.117234   -0.742449   3.862531 H        1 UNL1     0.2102
@<TRIPOS>BOND
     1     1     2    1
     2     1     6    1
     3     2     3    1
     4     3     4    1
     5     3    29    1
     6     3    33    1
     7     4     5    1
     8     5     6    1
     9     5     7    1
    10     5    35    1
    11     7     8    1
    12     8     9   ar
    13     8    13   ar
    14     9    10   ar
    15     9    36    1
    16    10    11   ar
    17    10    26    1
    18    11    12   ar
    19    11    14    1
    20    12    13   ar
    21    12    17    1
    22    13    37    1
    23    14    15    1
    24    14    25    2
    25    15    16    1
    26    15    38    1
    27    15    39    1
    28    16    17    1
    29    16    18    1
    30    16    40    1
    31    18    19   ar
    32    18    23   ar
    33    19    20   ar
    34    19    41    1
    35    20    21   ar
    36    20    42    1
    37    21    22   ar
    38    21    24    1
    39    22    23   ar
    40    22    43    1
    41    23    44    1
    42    24    45    1
    43    26    46    1
    44    27    47    1
    45    28    48    1
    46    29    49    1
    47    30    50    1
    48     1    31    1
    49     1    27    1
    50     2    32    1
    51     2    28    1
    52     4    34    1
    53     4    30    1
