@<TRIPOS>MOLECULE
*****
 50 53 0 0 0
SMALL
GASTEIGER

@<TRIPOS>ATOM
     1 C         -0.330127   -1.327106   1.703118 C.3        1 UNL1     0.1889
     2 C         -0.461546   -0.975615   0.196757 C.3        1 UNL1     0.1342
     3 C         -1.902621   -0.964761   -0.335831 C.3        1 UNL1     0.1174
     4 C         -2.787742   -2.024189   0.325448 C.3        1 UNL1     0.1456
     5 C         -2.635443   -2.048048   1.857309 C.3        1 UNL1     0.2326
     6 O         -1.270213   -2.264664   2.206724 O.3        1 UNL1     -0.3076
     7 O         -3.211056   -0.900911   2.508514 O.3        1 UNL1     -0.4605
     8 C         -3.719852   -1.115636   3.7768 C.ar        1 UNL1     0.1310
     9 C         -4.534782   -2.189156   4.151957 C.ar        1 UNL1     0.0226
     10 C         -4.986883   -2.328697   5.469544 C.ar        1 UNL1     0.1343
     11 C         -4.615081   -1.410113   6.450262 C.ar        1 UNL1     0.1007
     12 C         -3.835371   -0.311529   6.078845 C.ar        1 UNL1     0.1389
     13 C         -3.383096   -0.170014   4.753382 C.ar        1 UNL1     0.0229
     14 C         -4.994815   -1.554909   7.874688 C.2        1 UNL1     0.1740
     15 C         -4.326446   -0.604929   8.824619 C.3        1 UNL1     0.0520
     16 C         -4.259066   0.766452   8.166796 C.3        1 UNL1     0.1322
     17 O         -3.501082   0.709201   6.938279 O.3        1 UNL1     -0.4828
     18 C         -5.619169   1.457192   8.041406 C.ar        1 UNL1     -0.0067
     19 C         -5.999569   2.018305   6.805015 C.ar        1 UNL1     -0.0516
     20 C         -7.215689   2.698306   6.668582 C.ar        1 UNL1     -0.0198
     21 C         -8.054948   2.830091   7.760418 C.ar        1 UNL1     0.1169
     22 C         -7.72333   2.25952   8.982431 C.ar        1 UNL1     -0.0198
     23 C         -6.515737   1.563554   9.114368 C.ar        1 UNL1     -0.0516
     24 O         -9.213534   3.531605   7.599309 O.3        1 UNL1     -0.5068
     25 O         -5.742376   -2.437028   8.288819 O.2        1 UNL1     -0.2917
     26 O         -5.779816   -3.397605   5.770006 O.3        1 UNL1     -0.5058
     27 O         -0.225404   -0.188054   2.542393 O.3        1 UNL1     -0.3648
     28 O         0.269468   -1.95411   -0.565393 O.3        1 UNL1     -0.3841
     29 O         -2.461121   0.348459   -0.260584 O.3        1 UNL1     -0.3863
     30 O         -2.439338   -3.325156   -0.195887 O.3        1 UNL1     -0.3829
     31 H         0.631017   -1.839066   1.822191 H        1 UNL1     0.0937
     32 H         0.0   0.0   0.0 H        1 UNL1     0.0671
     33 H         -1.865876   -1.205222   -1.407535 H        1 UNL1     0.0649
     34 H         -3.838124   -1.846953   0.069155 H        1 UNL1     0.0683
     35 H         -3.189281   -2.944104   2.164271 H        1 UNL1     0.1085
     36 H         -4.812734   -2.966892   3.449112 H        1 UNL1     0.0691
     37 H         -2.778179   0.694837   4.489558 H        1 UNL1     0.0691
     38 H         -3.323545   -0.993716   9.030922 H        1 UNL1     0.0385
     39 H         -4.886112   -0.585545   9.765988 H        1 UNL1     0.0385
     40 H         -3.66451   1.412985   8.826354 H        1 UNL1     0.0789
     41 H         -5.354182   1.936408   5.935292 H        1 UNL1     0.0623
     42 H         -7.492319   3.136881   5.712999 H        1 UNL1     0.0654
     43 H         -8.380129   2.34377   9.840002 H        1 UNL1     0.0654
     44 H         -6.29353   1.121448   10.08081 H        1 UNL1     0.0623
     45 H         -8.988703   4.438948   7.336827 H        1 UNL1     0.2921
     46 H         -5.374448   -3.909539   6.48765 H        1 UNL1     0.2922
     47 H         0.517096   0.36597   2.263807 H        1 UNL1     0.2126
     48 H         1.202275   -1.887988   -0.283914 H        1 UNL1     0.2101
     49 H         -2.022963   0.930648   -0.901573 H        1 UNL1     0.2100
     50 H         -2.672996   -3.341241   -1.147127 H        1 UNL1     0.2102
@<TRIPOS>BOND
     1     1     2    1
     2     1     6    1
     3     2     3    1
     4     3     4    1
     5     3    29    1
     6     3    33    1
     7     4     5    1
     8     5     6    1
     9     5     7    1
    10     5    35    1
    11     7     8    1
    12     8     9   ar
    13     8    13   ar
    14     9    10   ar
    15     9    36    1
    16    10    11   ar
    17    10    26    1
    18    11    12   ar
    19    11    14    1
    20    12    13   ar
    21    12    17    1
    22    13    37    1
    23    14    15    1
    24    14    25    2
    25    15    16    1
    26    15    38    1
    27    15    39    1
    28    16    17    1
    29    16    18    1
    30    16    40    1
    31    18    19   ar
    32    18    23   ar
    33    19    20   ar
    34    19    41    1
    35    20    21   ar
    36    20    42    1
    37    21    22   ar
    38    21    24    1
    39    22    23   ar
    40    22    43    1
    41    23    44    1
    42    24    45    1
    43    26    46    1
    44    27    47    1
    45    28    48    1
    46    29    49    1
    47    30    50    1
    48     1    31    1
    49     1    27    1
    50     2    32    1
    51     2    28    1
    52     4    34    1
    53     4    30    1
