@<TRIPOS>MOLECULE
*****
 50 53 0 0 0
SMALL
GASTEIGER

@<TRIPOS>ATOM
     1 C         1.526415   -1.072887   1.135683 C.3        1 UNL1     0.1889
     2 C         0.171757   -0.321451   1.034761 C.3        1 UNL1     0.1342
     3 C         0.04192   0.894208   1.965235 C.3        1 UNL1     0.1174
     4 C         0.756344   0.695609   3.304366 C.3        1 UNL1     0.1456
     5 C         2.175871   0.123548   3.136874 C.3        1 UNL1     0.2326
     6 O         2.121773   -1.110222   2.424306 O.3        1 UNL1     -0.3076
     7 O         3.10936   1.062438   2.5726 O.3        1 UNL1     -0.4605
     8 C         3.502777   0.817242   1.269285 C.ar        1 UNL1     0.1310
     9 C         3.735905   -0.447041   0.717434 C.ar        1 UNL1     0.0226
     10 C         4.115931   -0.593178   -0.622017 C.ar        1 UNL1     0.1343
     11 C         4.249041   0.521115   -1.449345 C.ar        1 UNL1     0.1007
     12 C         4.058861   1.791409   -0.89892 C.ar        1 UNL1     0.1389
     13 C         3.679329   1.93824   0.448607 C.ar        1 UNL1     0.0229
     14 C         4.566315   0.419215   -2.892642 C.2        1 UNL1     0.1740
     15 C         4.450798   1.694749   -3.674447 C.3        1 UNL1     0.0520
     16 C         5.007665   2.83093   -2.827719 C.3        1 UNL1     0.1322
     17 O         4.268563   2.96029   -1.593189 O.3        1 UNL1     -0.4828
     18 C         6.527722   2.782848   -2.654974 C.ar        1 UNL1     -0.0067
     19 C         7.137902   3.581226   -1.66579 C.ar        1 UNL1     -0.0516
     20 C         8.529418   3.596824   -1.51281 C.ar        1 UNL1     -0.0198
     21 C         9.32045   2.825874   -2.345715 C.ar        1 UNL1     0.1169
     22 C         8.746894   2.003857   -3.307048 C.ar        1 UNL1     -0.0198
     23 C         7.35431   1.974019   -3.448032 C.ar        1 UNL1     -0.0516
     24 O         10.673938   2.895651   -2.192084 O.3        1 UNL1     -0.5068
     25 O         4.830416   -0.640986   -3.453631 O.2        1 UNL1     -0.2917
     26 O         4.329188   -1.85375   -1.09853 O.3        1 UNL1     -0.5058
     27 O         2.460277   -0.691291   0.138149 O.3        1 UNL1     -0.3648
     28 O         -0.884677   -1.237682   1.377068 O.3        1 UNL1     -0.3841
     29 O         0.444271   2.090692   1.295405 O.3        1 UNL1     -0.3863
     30 O         -0.015253   -0.209799   4.123246 O.3        1 UNL1     -0.3829
     31 H         1.316684   -2.126229   0.919901 H        1 UNL1     0.0937
     32 H         0.0   0.0   0.0 H        1 UNL1     0.0671
     33 H         -1.024792   1.031029   2.191344 H        1 UNL1     0.0649
     34 H         0.811426   1.64772   3.843673 H        1 UNL1     0.0683
     35 H         2.488184   -0.113422   4.16166 H        1 UNL1     0.1085
     36 H         3.595021   -1.355278   1.293088 H        1 UNL1     0.0691
     37 H         3.538467   2.938161   0.853339 H        1 UNL1     0.0691
     38 H         3.390045   1.851596   -3.897447 H        1 UNL1     0.0385
     39 H         4.987037   1.584091   -4.623121 H        1 UNL1     0.0385
     40 H         4.806004   3.765951   -3.367707 H        1 UNL1     0.0789
     41 H         6.539567   4.202275   -1.00553 H        1 UNL1     0.0623
     42 H         8.988741   4.225729   -0.754184 H        1 UNL1     0.0654
     43 H         9.356127   1.384655   -3.954608 H        1 UNL1     0.0654
     44 H         6.939655   1.312274   -4.202353 H        1 UNL1     0.0623
     45 H         11.020806   3.54842   -2.8216 H        1 UNL1     0.2921
     46 H         5.157412   -1.872877   -1.603596 H        1 UNL1     0.2922
     47 H         2.004581   -0.512548   -0.696268 H        1 UNL1     0.2126
     48 H         -1.119157   -1.713208   0.55693 H        1 UNL1     0.2101
     49 H         -0.219234   2.336045   0.631058 H        1 UNL1     0.2100
     50 H         -0.67095   -0.653659   3.546391 H        1 UNL1     0.2102
@<TRIPOS>BOND
     1     1     2    1
     2     1     6    1
     3     2     3    1
     4     3     4    1
     5     3    29    1
     6     3    33    1
     7     4     5    1
     8     5     6    1
     9     5     7    1
    10     5    35    1
    11     7     8    1
    12     8     9   ar
    13     8    13   ar
    14     9    10   ar
    15     9    36    1
    16    10    11   ar
    17    10    26    1
    18    11    12   ar
    19    11    14    1
    20    12    13   ar
    21    12    17    1
    22    13    37    1
    23    14    15    1
    24    14    25    2
    25    15    16    1
    26    15    38    1
    27    15    39    1
    28    16    17    1
    29    16    18    1
    30    16    40    1
    31    18    19   ar
    32    18    23   ar
    33    19    20   ar
    34    19    41    1
    35    20    21   ar
    36    20    42    1
    37    21    22   ar
    38    21    24    1
    39    22    23   ar
    40    22    43    1
    41    23    44    1
    42    24    45    1
    43    26    46    1
    44    27    47    1
    45    28    48    1
    46    29    49    1
    47    30    50    1
    48     1    31    1
    49     1    27    1
    50     2    32    1
    51     2    28    1
    52     4    34    1
    53     4    30    1
