@<TRIPOS>MOLECULE
*****
 50 53 0 0 0
SMALL
GASTEIGER

@<TRIPOS>ATOM
     1 C         -0.371285   -1.39739   1.637148 C.3        1 UNL1     0.1889
     2 C         -0.487935   -0.971233   0.148953 C.3        1 UNL1     0.1342
     3 C         -1.926295   -0.896667   -0.385861 C.3        1 UNL1     0.1174
     4 C         -2.841543   -1.962413   0.222105 C.3        1 UNL1     0.1456
     5 C         -2.695432   -2.063195   1.751437 C.3        1 UNL1     0.2326
     6 O         -1.337683   -2.33248   2.093302 O.3        1 UNL1     -0.3076
     7 O         -3.242785   -0.933425   2.455245 O.3        1 UNL1     -0.4605
     8 C         -3.772301   -1.196747   3.705766 C.ar        1 UNL1     0.1310
     9 C         -4.615947   -2.267824   4.019386 C.ar        1 UNL1     0.0226
     10 C         -5.087712   -2.459742   5.323421 C.ar        1 UNL1     0.1343
     11 C         -4.707696   -1.597995   6.351439 C.ar        1 UNL1     0.1007
     12 C         -3.898741   -0.501254   6.042354 C.ar        1 UNL1     0.1389
     13 C         -3.426656   -0.306992   4.730551 C.ar        1 UNL1     0.0229
     14 C         -5.10859   -1.80195   7.762765 C.2        1 UNL1     0.1740
     15 C         -4.431007   -0.914248   8.764971 C.3        1 UNL1     0.0520
     16 C         -4.32436   0.48511   8.174732 C.3        1 UNL1     0.1322
     17 O         -3.552384   0.469166   6.953721 O.3        1 UNL1     -0.4828
     18 C         -5.666823   1.212377   8.067029 C.ar        1 UNL1     -0.0067
     19 C         -5.688996   2.575816   7.708201 C.ar        1 UNL1     -0.0516
     20 C         -6.895741   3.282891   7.646773 C.ar        1 UNL1     -0.0198
     21 C         -8.083662   2.641233   7.948345 C.ar        1 UNL1     0.1169
     22 C         -8.097544   1.290823   8.272444 C.ar        1 UNL1     -0.0198
     23 C         -6.892839   0.578892   8.315982 C.ar        1 UNL1     -0.0516
     24 O         -9.23505   3.371694   7.914678 O.3        1 UNL1     -0.5068
     25 O         -5.881058   -2.685321   8.125301 O.2        1 UNL1     -0.2917
     26 O         -5.908318   -3.523148   5.562913 O.3        1 UNL1     -0.5058
     27 O         -0.239436   -0.302764   2.530007 O.3        1 UNL1     -0.3648
     28 O         0.219629   -1.931471   -0.657273 O.3        1 UNL1     -0.3841
     29 O         -2.450074   0.425894   -0.249398 O.3        1 UNL1     -0.3863
     30 O         -2.52586   -3.245913   -0.359842 O.3        1 UNL1     -0.3829
     31 H         0.575523   -1.939855   1.733915 H        1 UNL1     0.0937
     32 H         0.0   0.0   0.0 H        1 UNL1     0.0671
     33 H         -1.892086   -1.086746   -1.46772 H        1 UNL1     0.0649
     34 H         -3.885934   -1.745266   -0.027889 H        1 UNL1     0.0683
     35 H         -3.273914   -2.957775   2.014048 H        1 UNL1     0.1085
     36 H         -4.902478   -3.004391   3.276762 H        1 UNL1     0.0691
     37 H         -2.799075   0.555248   4.515659 H        1 UNL1     0.0691
     38 H         -3.439831   -1.335587   8.963894 H        1 UNL1     0.0385
     39 H         -5.001955   -0.926972   9.699655 H        1 UNL1     0.0385
     40 H         -3.723745   1.085397   8.871465 H        1 UNL1     0.0789
     41 H         -4.769157   3.10452   7.475784 H        1 UNL1     0.0623
     42 H         -6.898522   4.33695   7.380383 H        1 UNL1     0.0654
     43 H         -9.023694   0.77479   8.495748 H        1 UNL1     0.0654
     44 H         -6.941955   -0.477352   8.562522 H        1 UNL1     0.0623
     45 H         -9.191968   4.04448   8.613404 H        1 UNL1     0.2921
     46 H         -5.536072   -4.064727   6.276732 H        1 UNL1     0.2922
     47 H         0.505824   0.255444   2.267612 H        1 UNL1     0.2126
     48 H         1.171762   -1.779559   -0.502035 H        1 UNL1     0.2101
     49 H         -2.134176   0.982826   -0.978664 H        1 UNL1     0.2100
     50 H         -2.78268   -3.219853   -1.304869 H        1 UNL1     0.2102
@<TRIPOS>BOND
     1     1     2    1
     2     1     6    1
     3     2     3    1
     4     3     4    1
     5     3    29    1
     6     3    33    1
     7     4     5    1
     8     5     6    1
     9     5     7    1
    10     5    35    1
    11     7     8    1
    12     8     9   ar
    13     8    13   ar
    14     9    10   ar
    15     9    36    1
    16    10    11   ar
    17    10    26    1
    18    11    12   ar
    19    11    14    1
    20    12    13   ar
    21    12    17    1
    22    13    37    1
    23    14    15    1
    24    14    25    2
    25    15    16    1
    26    15    38    1
    27    15    39    1
    28    16    17    1
    29    16    18    1
    30    16    40    1
    31    18    19   ar
    32    18    23   ar
    33    19    20   ar
    34    19    41    1
    35    20    21   ar
    36    20    42    1
    37    21    22   ar
    38    21    24    1
    39    22    23   ar
    40    22    43    1
    41    23    44    1
    42    24    45    1
    43    26    46    1
    44    27    47    1
    45    28    48    1
    46    29    49    1
    47    30    50    1
    48     1    31    1
    49     1    27    1
    50     2    32    1
    51     2    28    1
    52     4    34    1
    53     4    30    1
