@<TRIPOS>MOLECULE
*****
 50 53 0 0 0
SMALL
GASTEIGER

@<TRIPOS>ATOM
     1 C         -0.317896   -1.310607   1.718155 C.3        1 UNL1     0.1889
     2 C         -0.471265   -0.967771   0.211874 C.3        1 UNL1     0.1342
     3 C         -1.921299   -0.94073   -0.295209 C.3        1 UNL1     0.1174
     4 C         -2.808918   -1.983248   0.389194 C.3        1 UNL1     0.1456
     5 C         -2.629744   -1.998602   1.918254 C.3        1 UNL1     0.2326
     6 O         -1.261604   -2.231602   2.245013 O.3        1 UNL1     -0.3076
     7 O         -3.177954   -0.839156   2.571301 O.3        1 UNL1     -0.4605
     8 C         -3.667004   -1.038059   3.849893 C.ar        1 UNL1     0.1310
     9 C         -4.489907   -2.097497   4.247036 C.ar        1 UNL1     0.0226
     10 C         -4.920356   -2.22168   5.573383 C.ar        1 UNL1     0.1343
     11 C         -4.518465   -1.301681   6.540816 C.ar        1 UNL1     0.1007
     12 C         -3.73036   -0.216666   6.147858 C.ar        1 UNL1     0.1389
     13 C         -3.299848   -0.090565   4.813621 C.ar        1 UNL1     0.0229
     14 C         -4.874737   -1.431399   7.972737 C.2        1 UNL1     0.1740
     15 C         -4.176467   -0.484361   8.903913 C.3        1 UNL1     0.0520
     16 C         -4.101836   0.881407   8.235283 C.3        1 UNL1     0.1322
     17 O         -3.366718   0.805159   6.993969 O.3        1 UNL1     -0.4828
     18 C         -5.454263   1.590201   8.129106 C.ar        1 UNL1     -0.0067
     19 C         -5.84882   2.14809   6.895697 C.ar        1 UNL1     -0.0516
     20 C         -7.057647   2.84406   6.776004 C.ar        1 UNL1     -0.0198
     21 C         -7.875421   2.995031   7.881572 C.ar        1 UNL1     0.1169
     22 C         -7.530021   2.428268   9.101539 C.ar        1 UNL1     -0.0198
     23 C         -6.33002   1.716424   9.217 C.ar        1 UNL1     -0.0516
     24 O         -9.02687   3.71154   7.736037 O.3        1 UNL1     -0.5068
     25 O         -5.626943   -2.300132   8.406296 O.2        1 UNL1     -0.2917
     26 O         -5.722534   -3.277325   5.895422 O.3        1 UNL1     -0.5058
     27 O         -0.182708   -0.167326   2.547264 O.3        1 UNL1     -0.3648
     28 O         0.23264   -1.961507   -0.556055 O.3        1 UNL1     -0.3841
     29 O         -2.460374   0.380557   -0.219507 O.3        1 UNL1     -0.3863
     30 O         -2.487652   -3.292473   -0.128886 O.3        1 UNL1     -0.3829
     31 H         0.638126   -1.834938   1.823876 H        1 UNL1     0.0937
     32 H         0.0   0.0   0.0 H        1 UNL1     0.0671
     33 H         -1.906907   -1.189087   -1.365644 H        1 UNL1     0.0649
     34 H         -3.861171   -1.79332   0.150255 H        1 UNL1     0.0683
     35 H         -3.19023   -2.884788   2.241375 H        1 UNL1     0.1085
     36 H         -4.791072   -2.876071   3.554763 H        1 UNL1     0.0691
     37 H         -2.687812   0.763924   4.532991 H        1 UNL1     0.0691
     38 H         -3.175529   -0.885696   9.095173 H        1 UNL1     0.0385
     39 H         -4.718956   -0.450714   9.854887 H        1 UNL1     0.0385
     40 H         -3.486732   1.524075   8.879601 H        1 UNL1     0.0789
     41 H         -5.220221   2.05123   6.01528 H        1 UNL1     0.0623
     42 H         -7.345154   3.2799   5.822382 H        1 UNL1     0.0654
     43 H         -8.170212   2.527557   9.969989 H        1 UNL1     0.0654
     44 H         -6.096777   1.277888   10.182468 H        1 UNL1     0.0623
     45 H         -8.794174   4.61403   7.463858 H        1 UNL1     0.2921
     46 H         -5.311989   -3.789447   6.609982 H        1 UNL1     0.2922
     47 H         0.562117   0.374552   2.251523 H        1 UNL1     0.2126
     48 H         1.171297   -1.905585   -0.292374 H        1 UNL1     0.2101
     49 H         -2.025827   0.952176   -0.872359 H        1 UNL1     0.2100
     50 H         -2.738386   -3.311918   -1.075706 H        1 UNL1     0.2102
@<TRIPOS>BOND
     1     1     2    1
     2     1     6    1
     3     2     3    1
     4     3     4    1
     5     3    29    1
     6     3    33    1
     7     4     5    1
     8     5     6    1
     9     5     7    1
    10     5    35    1
    11     7     8    1
    12     8     9   ar
    13     8    13   ar
    14     9    10   ar
    15     9    36    1
    16    10    11   ar
    17    10    26    1
    18    11    12   ar
    19    11    14    1
    20    12    13   ar
    21    12    17    1
    22    13    37    1
    23    14    15    1
    24    14    25    2
    25    15    16    1
    26    15    38    1
    27    15    39    1
    28    16    17    1
    29    16    18    1
    30    16    40    1
    31    18    19   ar
    32    18    23   ar
    33    19    20   ar
    34    19    41    1
    35    20    21   ar
    36    20    42    1
    37    21    22   ar
    38    21    24    1
    39    22    23   ar
    40    22    43    1
    41    23    44    1
    42    24    45    1
    43    26    46    1
    44    27    47    1
    45    28    48    1
    46    29    49    1
    47    30    50    1
    48     1    31    1
    49     1    27    1
    50     2    32    1
    51     2    28    1
    52     4    34    1
    53     4    30    1
