@<TRIPOS>MOLECULE
*****
 50 53 0 0 0
SMALL
GASTEIGER

@<TRIPOS>ATOM
     1 C         0.921803   0.042361   1.97972 C.3        1 UNL1     0.1889
     2 C         -0.320478   0.022575   1.048974 C.3        1 UNL1     0.1342
     3 C         -1.29187   1.195621   1.25103 C.3        1 UNL1     0.1174
     4 C         -1.385365   1.643934   2.711643 C.3        1 UNL1     0.1456
     5 C         -0.003075   1.791817   3.373284 C.3        1 UNL1     0.2326
     6 O         0.712341   0.561699   3.284637 O.3        1 UNL1     -0.3076
     7 O         0.747581   2.919304   2.886859 O.3        1 UNL1     -0.4605
     8 C         1.601127   3.517279   3.796482 C.ar        1 UNL1     0.1310
     9 C         1.277628   3.843444   5.117945 C.ar        1 UNL1     0.0226
     10 C         2.219614   4.433347   5.969167 C.ar        1 UNL1     0.1343
     11 C         3.516482   4.689842   5.52624 C.ar        1 UNL1     0.1007
     12 C         3.839215   4.406263   4.196499 C.ar        1 UNL1     0.1389
     13 C         2.891088   3.815554   3.340025 C.ar        1 UNL1     0.0229
     14 C         4.575524   5.234101   6.407357 C.2        1 UNL1     0.1740
     15 C         5.961204   5.236884   5.831657 C.3        1 UNL1     0.0520
     16 C         5.873719   5.644292   4.367306 C.3        1 UNL1     0.1322
     17 O         5.051448   4.716781   3.62524 O.3        1 UNL1     -0.4828
     18 C         5.515348   7.117544   4.157971 C.ar        1 UNL1     -0.0067
     19 C         4.492629   7.459157   3.249367 C.ar        1 UNL1     -0.0516
     20 C         4.172109   8.798776   2.999069 C.ar        1 UNL1     -0.0198
     21 C         4.870337   9.803927   3.644031 C.ar        1 UNL1     0.1169
     22 C         5.860011   9.498466   4.569276 C.ar        1 UNL1     -0.0198
     23 C         6.168184   8.158598   4.833549 C.ar        1 UNL1     -0.0516
     24 O         4.556013   11.097435   3.346646 O.3        1 UNL1     -0.5068
     25 O         4.374426   5.59102   7.565222 O.2        1 UNL1     -0.2917
     26 O         1.840314   4.727845   7.246268 O.3        1 UNL1     -0.5058
     27 O         2.074777   0.602673   1.371866 O.3        1 UNL1     -0.3648
     28 O         -1.05607   -1.190144   1.295801 O.3        1 UNL1     -0.3841
     29 O         -0.981666   2.269878   0.361155 O.3        1 UNL1     -0.3863
     30 O         -2.155019   0.674979   3.456256 O.3        1 UNL1     -0.3829
     31 H         1.193653   -1.003279   2.160868 H        1 UNL1     0.0937
     32 H         0.0   0.0   -0.0 H        1 UNL1     0.0671
     33 H         -2.294803   0.854712   0.958411 H        1 UNL1     0.0649
     34 H         -1.921288   2.597329   2.776643 H        1 UNL1     0.0683
     35 H         -0.233299   1.951158   4.434173 H        1 UNL1     0.1085
     36 H         0.303871   3.618163   5.538856 H        1 UNL1     0.0691
     37 H         3.166922   3.605615   2.308843 H        1 UNL1     0.0691
     38 H         6.3654   4.224376   5.936445 H        1 UNL1     0.0385
     39 H         6.59052   5.918383   6.41415 H        1 UNL1     0.0385
     40 H         6.877661   5.525566   3.937743 H        1 UNL1     0.0789
     41 H         3.936035   6.688855   2.723545 H        1 UNL1     0.0623
     42 H         3.389494   9.049611   2.287305 H        1 UNL1     0.0654
     43 H         6.402759   10.277519   5.091206 H        1 UNL1     0.0654
     44 H         6.93975   7.95627   5.570159 H        1 UNL1     0.0623
     45 H         4.714707   11.241684   2.39969 H        1 UNL1     0.2921
     46 H         2.4379   4.287329   7.870965 H        1 UNL1     0.2922
     47 H         2.281262   0.134736   0.550733 H        1 UNL1     0.2126
     48 H         -0.458199   -1.9299   1.074343 H        1 UNL1     0.2101
     49 H         -1.189628   2.013073   -0.551313 H        1 UNL1     0.2100
     50 H         -3.073053   0.692366   3.114752 H        1 UNL1     0.2102
@<TRIPOS>BOND
     1     1     2    1
     2     1     6    1
     3     2     3    1
     4     3     4    1
     5     3    29    1
     6     3    33    1
     7     4     5    1
     8     5     6    1
     9     5     7    1
    10     5    35    1
    11     7     8    1
    12     8     9   ar
    13     8    13   ar
    14     9    10   ar
    15     9    36    1
    16    10    11   ar
    17    10    26    1
    18    11    12   ar
    19    11    14    1
    20    12    13   ar
    21    12    17    1
    22    13    37    1
    23    14    15    1
    24    14    25    2
    25    15    16    1
    26    15    38    1
    27    15    39    1
    28    16    17    1
    29    16    18    1
    30    16    40    1
    31    18    19   ar
    32    18    23   ar
    33    19    20   ar
    34    19    41    1
    35    20    21   ar
    36    20    42    1
    37    21    22   ar
    38    21    24    1
    39    22    23   ar
    40    22    43    1
    41    23    44    1
    42    24    45    1
    43    26    46    1
    44    27    47    1
    45    28    48    1
    46    29    49    1
    47    30    50    1
    48     1    31    1
    49     1    27    1
    50     2    32    1
    51     2    28    1
    52     4    34    1
    53     4    30    1
