@<TRIPOS>MOLECULE
*****
 50 53 0 0 0
SMALL
GASTEIGER

@<TRIPOS>ATOM
     1 C         -0.326437   -1.366791   1.672162 C.3        1 UNL1     0.1889
     2 C         -0.462153   -0.979465   0.174998 C.3        1 UNL1     0.1342
     3 C         -1.904882   -0.954258   -0.352603 C.3        1 UNL1     0.1174
     4 C         -2.789251   -2.028045   0.286139 C.3        1 UNL1     0.1456
     5 C         -2.632163   -2.088461   1.81651 C.3        1 UNL1     0.2326
     6 O         -1.266113   -2.314932   2.156345 O.3        1 UNL1     -0.3076
     7 O         -3.204278   -0.956435   2.496599 O.3        1 UNL1     -0.4605
     8 C         -3.719978   -1.203117   3.756253 C.ar        1 UNL1     0.1310
     9 C         -4.537099   -2.28557   4.099632 C.ar        1 UNL1     0.0226
     10 C         -4.99636   -2.458361   5.410786 C.ar        1 UNL1     0.1343
     11 C         -4.62974   -1.565062   6.416494 C.ar        1 UNL1     0.1007
     12 C         -3.847856   -0.457638   6.077298 C.ar        1 UNL1     0.1389
     13 C         -3.388376   -0.282674   4.758323 C.ar        1 UNL1     0.0229
     14 C         -5.017217   -1.745838   7.834709 C.2        1 UNL1     0.1740
     15 C         -4.353861   -0.82046   8.812043 C.3        1 UNL1     0.0520
     16 C         -4.2827   0.567149   8.189601 C.3        1 UNL1     0.1322
     17 O         -3.518073   0.540861   6.964152 O.3        1 UNL1     -0.4828
     18 C         -5.641996   1.261247   8.074409 C.ar        1 UNL1     -0.0067
     19 C         -5.76856   2.405406   7.260103 C.ar        1 UNL1     -0.0516
     20 C         -6.985412   3.091755   7.169778 C.ar        1 UNL1     -0.0198
     21 C         -8.078636   2.64929   7.892906 C.ar        1 UNL1     0.1169
     22 C         -7.994271   1.506303   8.677318 C.ar        1 UNL1     -0.0198
     23 C         -6.782587   0.8091   8.753385 C.ar        1 UNL1     -0.0516
     24 O         -9.236642   3.365156   7.809494 O.3        1 UNL1     -0.5068
     25 O         -5.76715   -2.63796   8.22227 O.2        1 UNL1     -0.2917
     26 O         -5.791078   -3.534315   5.679731 O.3        1 UNL1     -0.5058
     27 O         -0.217638   -0.24812   2.537913 O.3        1 UNL1     -0.3648
     28 O         0.265225   -1.940447   -0.612492 O.3        1 UNL1     -0.3841
     29 O         -2.461488   0.357465   -0.244417 O.3        1 UNL1     -0.3863
     30 O         -2.444129   -3.316674   -0.267048 O.3        1 UNL1     -0.3829
     31 H         0.634431   -1.882573   1.77599 H        1 UNL1     0.0937
     32 H         0.0   0.0   0.0 H        1 UNL1     0.0671
     33 H         -1.871813   -1.16924   -1.429825 H        1 UNL1     0.0649
     34 H         -3.840211   -1.843527   0.037465 H        1 UNL1     0.0683
     35 H         -3.186159   -2.990899   2.103864 H        1 UNL1     0.1085
     36 H         -4.811355   -3.045143   3.375785 H        1 UNL1     0.0691
     37 H         -2.781903   0.588414   4.519807 H        1 UNL1     0.0691
     38 H         -3.352154   -1.21465   9.013847 H        1 UNL1     0.0385
     39 H         -4.918622   -0.8248   9.750555 H        1 UNL1     0.0385
     40 H         -3.691629   1.196566   8.868562 H        1 UNL1     0.0789
     41 H         -4.922745   2.778122   6.689725 H        1 UNL1     0.0623
     42 H         -7.067116   3.979656   6.547711 H        1 UNL1     0.0654
     43 H         -8.848327   1.142398   9.235952 H        1 UNL1     0.0654
     44 H         -6.75547   -0.085851   9.36753 H        1 UNL1     0.0623
     45 H         -9.072207   4.256164   8.158469 H        1 UNL1     0.2921
     46 H         -5.402232   -4.050949   6.403126 H        1 UNL1     0.2922
     47 H         0.511667   0.32239   2.25775 H        1 UNL1     0.2126
     48 H         1.210225   -1.820587   -0.397223 H        1 UNL1     0.2101
     49 H         -2.030785   0.95209   -0.879011 H        1 UNL1     0.2100
     50 H         -2.706751   -3.319763   -1.210834 H        1 UNL1     0.2102
@<TRIPOS>BOND
     1     1     2    1
     2     1     6    1
     3     2     3    1
     4     3     4    1
     5     3    29    1
     6     3    33    1
     7     4     5    1
     8     5     6    1
     9     5     7    1
    10     5    35    1
    11     7     8    1
    12     8     9   ar
    13     8    13   ar
    14     9    10   ar
    15     9    36    1
    16    10    11   ar
    17    10    26    1
    18    11    12   ar
    19    11    14    1
    20    12    13   ar
    21    12    17    1
    22    13    37    1
    23    14    15    1
    24    14    25    2
    25    15    16    1
    26    15    38    1
    27    15    39    1
    28    16    17    1
    29    16    18    1
    30    16    40    1
    31    18    19   ar
    32    18    23   ar
    33    19    20   ar
    34    19    41    1
    35    20    21   ar
    36    20    42    1
    37    21    22   ar
    38    21    24    1
    39    22    23   ar
    40    22    43    1
    41    23    44    1
    42    24    45    1
    43    26    46    1
    44    27    47    1
    45    28    48    1
    46    29    49    1
    47    30    50    1
    48     1    31    1
    49     1    27    1
    50     2    32    1
    51     2    28    1
    52     4    34    1
    53     4    30    1
