@<TRIPOS>MOLECULE
*****
 50 53 0 0 0
SMALL
GASTEIGER

@<TRIPOS>ATOM
     1 C         -0.765335   -0.810576   -1.878306 C.3        1 UNL1     0.1889
     2 C         0.391775   -0.293604   -0.981769 C.3        1 UNL1     0.1342
     3 C         1.187645   0.879135   -1.574844 C.3        1 UNL1     0.1174
     4 C         1.32261   0.795143   -3.097292 C.3        1 UNL1     0.1456
     5 C         -0.01216   0.467132   -3.79095 C.3        1 UNL1     0.2326
     6 O         -0.538543   -0.755026   -3.278975 O.3        1 UNL1     -0.3076
     7 O         -0.958837   1.550529   -3.753886 O.3        1 UNL1     -0.4605
     8 C         -2.113751   1.32182   -3.027666 C.ar        1 UNL1     0.1310
     9 C         -2.808232   2.283358   -2.285748 C.ar        1 UNL1     0.0226
     10 C         -3.98171   1.956485   -1.595815 C.ar        1 UNL1     0.1343
     11 C         -4.502687   0.664423   -1.65058 C.ar        1 UNL1     0.1007
     12 C         -3.795924   -0.314197   -2.35455 C.ar        1 UNL1     0.1389
     13 C         -2.6146   0.0141   -3.046016 C.ar        1 UNL1     0.0229
     14 C         -5.783122   0.284587   -1.009983 C.2        1 UNL1     0.1740
     15 C         -6.302299   -1.080165   -1.355607 C.3        1 UNL1     0.0520
     16 C         -5.127181   -2.04746   -1.392961 C.3        1 UNL1     0.1322
     17 O         -4.159411   -1.640542   -2.385388 O.3        1 UNL1     -0.4828
     18 C         -4.533809   -2.34965   -0.014805 C.ar        1 UNL1     -0.0067
     19 C         -4.297635   -1.290029   0.884995 C.ar        1 UNL1     -0.0516
     20 C         -3.712345   -1.525841   2.134711 C.ar        1 UNL1     -0.0198
     21 C         -3.352772   -2.812854   2.492667 C.ar        1 UNL1     0.1169
     22 C         -3.603243   -3.881518   1.641751 C.ar        1 UNL1     -0.0198
     23 C         -4.205396   -3.648448   0.399517 C.ar        1 UNL1     -0.0516
     24 O         -2.750505   -2.998836   3.702248 O.3        1 UNL1     -0.5068
     25 O         -6.437658   1.04646   -0.303147 O.2        1 UNL1     -0.2917
     26 O         -4.610625   2.940197   -0.889868 O.3        1 UNL1     -0.5058
     27 O         -2.032225   -0.27457   -1.531211 O.3        1 UNL1     -0.3648
     28 O         1.318344   -1.373947   -0.764895 O.3        1 UNL1     -0.3841
     29 O         0.652638   2.129033   -1.134781 O.3        1 UNL1     -0.3863
     30 O         2.283626   -0.229648   -3.431868 O.3        1 UNL1     -0.3829
     31 H         -0.86193   -1.88304   -1.67689 H        1 UNL1     0.0937
     32 H         0.0   0.0   0.0 H        1 UNL1     0.0671
     33 H         2.205494   0.836129   -1.162709 H        1 UNL1     0.0649
     34 H         1.712011   1.740555   -3.490945 H        1 UNL1     0.0683
     35 H         0.270933   0.280187   -4.8344 H        1 UNL1     0.1085
     36 H         -2.485476   3.318068   -2.249377 H        1 UNL1     0.0691
     37 H         -2.082451   -0.766271   -3.585768 H        1 UNL1     0.0691
     38 H         -6.788517   -1.011399   -2.33458 H        1 UNL1     0.0385
     39 H         -7.057359   -1.374216   -0.618588 H        1 UNL1     0.0385
     40 H         -5.510653   -3.008589   -1.761335 H        1 UNL1     0.0789
     41 H         -4.562464   -0.269559   0.623928 H        1 UNL1     0.0623
     42 H         -3.524453   -0.698789   2.814927 H        1 UNL1     0.0654
     43 H         -3.339428   -4.895351   1.918257 H        1 UNL1     0.0654
     44 H         -4.396003   -4.50809   -0.235724 H        1 UNL1     0.0623
     45 H         -1.968639   -2.424906   3.747028 H        1 UNL1     0.2921
     46 H         -4.979329   2.567338   -0.073507 H        1 UNL1     0.2922
     47 H         -2.181943   -0.358735   -0.579181 H        1 UNL1     0.2126
     48 H         0.812512   -2.202266   -0.873314 H        1 UNL1     0.2101
     49 H         -0.248086   2.241641   -1.478015 H        1 UNL1     0.2100
     50 H         2.898027   0.13962   -4.0996 H        1 UNL1     0.2102
@<TRIPOS>BOND
     1     1     2    1
     2     1     6    1
     3     2     3    1
     4     3     4    1
     5     3    29    1
     6     3    33    1
     7     4     5    1
     8     5     6    1
     9     5     7    1
    10     5    35    1
    11     7     8    1
    12     8     9   ar
    13     8    13   ar
    14     9    10   ar
    15     9    36    1
    16    10    11   ar
    17    10    26    1
    18    11    12   ar
    19    11    14    1
    20    12    13   ar
    21    12    17    1
    22    13    37    1
    23    14    15    1
    24    14    25    2
    25    15    16    1
    26    15    38    1
    27    15    39    1
    28    16    17    1
    29    16    18    1
    30    16    40    1
    31    18    19   ar
    32    18    23   ar
    33    19    20   ar
    34    19    41    1
    35    20    21   ar
    36    20    42    1
    37    21    22   ar
    38    21    24    1
    39    22    23   ar
    40    22    43    1
    41    23    44    1
    42    24    45    1
    43    26    46    1
    44    27    47    1
    45    28    48    1
    46    29    49    1
    47    30    50    1
    48     1    31    1
    49     1    27    1
    50     2    32    1
    51     2    28    1
    52     4    34    1
    53     4    30    1
