@<TRIPOS>MOLECULE
*****
 50 53 0 0 0
SMALL
GASTEIGER

@<TRIPOS>ATOM
     1 C         -0.189632   -1.252081   1.779646 C.3        1 UNL1     0.1889
     2 C         -0.382549   -0.994543   0.260963 C.3        1 UNL1     0.1342
     3 C         -1.832597   -1.118733   -0.231381 C.3        1 UNL1     0.1174
     4 C         -2.620166   -2.202265   0.509438 C.3        1 UNL1     0.1456
     5 C         -2.430318   -2.130615   2.035606 C.3        1 UNL1     0.2326
     6 O         -1.044834   -2.226958   2.358125 O.3        1 UNL1     -0.3076
     7 O         -3.074499   -0.994725   2.640671 O.3        1 UNL1     -0.4605
     8 C         -3.542818   -1.178616   3.929233 C.ar        1 UNL1     0.1310
     9 C         -4.271667   -2.285989   4.376227 C.ar        1 UNL1     0.0226
     10 C         -4.687904   -2.388427   5.708952 C.ar        1 UNL1     0.1343
     11 C         -4.364529   -1.396206   6.633488 C.ar        1 UNL1     0.1007
     12 C         -3.672528   -0.266155   6.189749 C.ar        1 UNL1     0.1389
     13 C         -3.256404   -0.162147   4.849057 C.ar        1 UNL1     0.0229
     14 C         -4.706225   -1.493226   8.071537 C.2        1 UNL1     0.1740
     15 C         -4.089917   -0.450415   8.95712 C.3        1 UNL1     0.0520
     16 C         -4.133174   0.886274   8.229556 C.3        1 UNL1     0.1322
     17 O         -3.396141   0.818873   6.988867 O.3        1 UNL1     -0.4828
     18 C         -5.541333   1.471931   8.099873 C.ar        1 UNL1     -0.0067
     19 C         -5.982957   1.942401   6.846143 C.ar        1 UNL1     -0.0516
     20 C         -7.246953   2.526998   6.702883 C.ar        1 UNL1     -0.0198
     21 C         -8.073924   2.65332   7.804695 C.ar        1 UNL1     0.1169
     22 C         -7.680527   2.16926   9.045567 C.ar        1 UNL1     -0.0198
     23 C         -6.423969   1.56793   9.185291 C.ar        1 UNL1     -0.0516
     24 O         -9.282526   3.262191   7.634525 O.3        1 UNL1     -0.5068
     25 O         -5.380859   -2.403157   8.546277 O.2        1 UNL1     -0.2917
     26 O         -5.396543   -3.493535   6.080641 O.3        1 UNL1     -0.5058
     27 O         -0.150518   -0.063993   2.554052 O.3        1 UNL1     -0.3648
     28 O         0.401325   -1.957204   -0.4681 O.3        1 UNL1     -0.3841
     29 O         -2.485755   0.152126   -0.21053 O.3        1 UNL1     -0.3863
     30 O         -2.187925   -3.500863   0.048462 O.3        1 UNL1     -0.3829
     31 H         0.809637   -1.684832   1.899093 H        1 UNL1     0.0937
     32 H         0.0   0.0   0.0 H        1 UNL1     0.0671
     33 H         -1.803342   -1.414418   -1.289414 H        1 UNL1     0.0649
     34 H         -3.686624   -2.116919   0.273255 H        1 UNL1     0.0683
     35 H         -2.908215   -3.046645   2.404906 H        1 UNL1     0.1085
     36 H         -4.506334   -3.116849   3.719932 H        1 UNL1     0.0691
     37 H         -2.719977   0.728332   4.528454 H        1 UNL1     0.0691
     38 H         -3.05808   -0.756267   9.160329 H        1 UNL1     0.0385
     39 H         -4.631835   -0.421668   9.90858 H        1 UNL1     0.0385
     40 H         -3.574188   1.606513   8.84218 H        1 UNL1     0.0789
     41 H         -5.34895   1.863131   5.967848 H        1 UNL1     0.0623
     42 H         -7.5713   2.896728   5.73329 H        1 UNL1     0.0654
     43 H         -8.3263   2.24946   9.911855 H        1 UNL1     0.0654
     44 H         -6.153449   1.191373   10.167059 H        1 UNL1     0.0623
     45 H         -9.127431   4.178668   7.353931 H        1 UNL1     0.2921
     46 H         -4.943499   -3.936278   6.815585 H        1 UNL1     0.2922
     47 H         0.535129   0.531055   2.219888 H        1 UNL1     0.2126
     48 H         1.336469   -1.779125   -0.250096 H        1 UNL1     0.2101
     49 H         -2.11349   0.725834   -0.899058 H        1 UNL1     0.2100
     50 H         -2.447185   -3.58856   -0.89218 H        1 UNL1     0.2102
@<TRIPOS>BOND
     1     1     2    1
     2     1     6    1
     3     2     3    1
     4     3     4    1
     5     3    29    1
     6     3    33    1
     7     4     5    1
     8     5     6    1
     9     5     7    1
    10     5    35    1
    11     7     8    1
    12     8     9   ar
    13     8    13   ar
    14     9    10   ar
    15     9    36    1
    16    10    11   ar
    17    10    26    1
    18    11    12   ar
    19    11    14    1
    20    12    13   ar
    21    12    17    1
    22    13    37    1
    23    14    15    1
    24    14    25    2
    25    15    16    1
    26    15    38    1
    27    15    39    1
    28    16    17    1
    29    16    18    1
    30    16    40    1
    31    18    19   ar
    32    18    23   ar
    33    19    20   ar
    34    19    41    1
    35    20    21   ar
    36    20    42    1
    37    21    22   ar
    38    21    24    1
    39    22    23   ar
    40    22    43    1
    41    23    44    1
    42    24    45    1
    43    26    46    1
    44    27    47    1
    45    28    48    1
    46    29    49    1
    47    30    50    1
    48     1    31    1
    49     1    27    1
    50     2    32    1
    51     2    28    1
    52     4    34    1
    53     4    30    1
