@<TRIPOS>MOLECULE
*****
 50 53 0 0 0
SMALL
GASTEIGER

@<TRIPOS>ATOM
     1 C         -0.390448   -1.398841   1.631441 C.3        1 UNL1     0.1889
     2 C         -0.425919   -1.002506   0.130907 C.3        1 UNL1     0.1342
     3 C         -1.821781   -1.0415   -0.509806 C.3        1 UNL1     0.1174
     4 C         -2.700205   -2.163619   0.049065 C.3        1 UNL1     0.1456
     5 C         -2.662138   -2.232769   1.586639 C.3        1 UNL1     0.2326
     6 O         -1.317856   -2.396488   2.032701 O.3        1 UNL1     -0.3076
     7 O         -3.34125   -1.137117   2.226698 O.3        1 UNL1     -0.4605
     8 C         -3.93276   -1.419125   3.44494 C.ar        1 UNL1     0.1310
     9 C         -4.719586   -2.541991   3.723109 C.ar        1 UNL1     0.0226
     10 C         -5.262052   -2.747987   4.997157 C.ar        1 UNL1     0.1343
     11 C         -5.010876   -1.847388   6.031407 C.ar        1 UNL1     0.1007
     12 C         -4.260647   -0.701282   5.755034 C.ar        1 UNL1     0.1389
     13 C         -3.717512   -0.493034   4.473212 C.ar        1 UNL1     0.0229
     14 C         -5.489044   -2.058926   7.417322 C.2        1 UNL1     0.1740
     15 C         -4.941738   -1.112014   8.44463 C.3        1 UNL1     0.0520
     16 C         -4.892882   0.282912   7.836558 C.3        1 UNL1     0.1322
     17 O         -4.042754   0.303718   6.668688 O.3        1 UNL1     -0.4828
     18 C         -6.27215   0.91303   7.628482 C.ar        1 UNL1     -0.0067
     19 C         -6.584739   1.500522   6.385359 C.ar        1 UNL1     -0.0516
     20 C         -7.819245   2.127098   6.177131 C.ar        1 UNL1     -0.0198
     21 C         -8.74471   2.179188   7.204082 C.ar        1 UNL1     0.1169
     22 C         -8.479137   1.580486   8.428772 C.ar        1 UNL1     -0.0198
     23 C         -7.251986   0.937737   8.631331 C.ar        1 UNL1     -0.0516
     24 O         -9.921112   2.830849   6.976451 O.3        1 UNL1     -0.5068
     25 O         -6.221157   -2.988902   7.74541 O.2        1 UNL1     -0.2917
     26 O         -6.02158   -3.862638   5.202718 O.3        1 UNL1     -0.5058
     27 O         -0.405674   -0.285563   2.51074 O.3        1 UNL1     -0.3648
     28 O         0.407894   -1.918657   -0.602666 O.3        1 UNL1     -0.3841
     29 O         -2.448943   0.24051   -0.437353 O.3        1 UNL1     -0.3863
     30 O         -2.249467   -3.428028   -0.483659 O.3        1 UNL1     -0.3829
     31 H         0.583329   -1.868596   1.807982 H        1 UNL1     0.0937
     32 H         0.0   0.0   0.0 H        1 UNL1     0.0671
     33 H         -1.692916   -1.243066   -1.582413 H        1 UNL1     0.0649
     34 H         -3.735935   -2.027528   -0.281304 H        1 UNL1     0.0683
     35 H         -3.192189   -3.163992   1.82275 H        1 UNL1     0.1085
     36 H         -4.905146   -3.307174   2.977332 H        1 UNL1     0.0691
     37 H         -3.137916   0.407823   4.28343 H        1 UNL1     0.0691
     38 H         -3.93922   -1.460236   8.715234 H        1 UNL1     0.0385
     39 H         -5.570888   -1.15141   9.340396 H        1 UNL1     0.0385
     40 H         -4.382267   0.933456   8.559458 H        1 UNL1     0.0789
     41 H         -5.871734   1.480978   5.566278 H        1 UNL1     0.0623
     42 H         -8.043781   2.58687   5.217857 H        1 UNL1     0.0654
     43 H         -9.202698   1.602287   9.234932 H        1 UNL1     0.0654
     44 H         -7.082299   0.471483   9.597073 H        1 UNL1     0.0623
     45 H         -9.722717   3.758252   6.768413 H        1 UNL1     0.2921
     46 H         -5.647144   -4.378939   5.933911 H        1 UNL1     0.2922
     47 H         0.32542   0.313624   2.304983 H        1 UNL1     0.2126
     48 H         1.313788   -1.813379   -0.253375 H        1 UNL1     0.2101
     49 H         -1.993627   0.864322   -1.025009 H        1 UNL1     0.2100
     50 H         -2.410091   -3.422508   -1.450035 H        1 UNL1     0.2102
@<TRIPOS>BOND
     1     1     2    1
     2     1     6    1
     3     2     3    1
     4     3     4    1
     5     3    29    1
     6     3    33    1
     7     4     5    1
     8     5     6    1
     9     5     7    1
    10     5    35    1
    11     7     8    1
    12     8     9   ar
    13     8    13   ar
    14     9    10   ar
    15     9    36    1
    16    10    11   ar
    17    10    26    1
    18    11    12   ar
    19    11    14    1
    20    12    13   ar
    21    12    17    1
    22    13    37    1
    23    14    15    1
    24    14    25    2
    25    15    16    1
    26    15    38    1
    27    15    39    1
    28    16    17    1
    29    16    18    1
    30    16    40    1
    31    18    19   ar
    32    18    23   ar
    33    19    20   ar
    34    19    41    1
    35    20    21   ar
    36    20    42    1
    37    21    22   ar
    38    21    24    1
    39    22    23   ar
    40    22    43    1
    41    23    44    1
    42    24    45    1
    43    26    46    1
    44    27    47    1
    45    28    48    1
    46    29    49    1
    47    30    50    1
    48     1    31    1
    49     1    27    1
    50     2    32    1
    51     2    28    1
    52     4    34    1
    53     4    30    1
