@<TRIPOS>MOLECULE
*****
 50 53 0 0 0
SMALL
GASTEIGER

@<TRIPOS>ATOM
     1 C         -0.370233   -1.397736   1.63709 C.3        1 UNL1     0.1889
     2 C         -0.487575   -0.971407   0.149 C.3        1 UNL1     0.1342
     3 C         -1.926159   -0.897215   -0.385264 C.3        1 UNL1     0.1174
     4 C         -2.840845   -1.963334   0.222895 C.3        1 UNL1     0.1456
     5 C         -2.694128   -2.064285   1.752159 C.3        1 UNL1     0.2326
     6 O         -1.336167   -2.333193   2.093476 O.3        1 UNL1     -0.3076
     7 O         -3.241571   -0.934786   2.456331 O.3        1 UNL1     -0.4605
     8 C         -3.770534   -1.19845   3.707014 C.ar        1 UNL1     0.1310
     9 C         -4.613727   -2.269834   4.020799 C.ar        1 UNL1     0.0226
     10 C         -5.084942   -2.462083   5.324985 C.ar        1 UNL1     0.1343
     11 C         -4.70481   -1.600362   6.352982 C.ar        1 UNL1     0.1007
     12 C         -3.896314   -0.503324   6.043747 C.ar        1 UNL1     0.1389
     13 C         -3.424783   -0.30873   4.731794 C.ar        1 UNL1     0.0229
     14 C         -5.10511   -1.804641   7.764429 C.2        1 UNL1     0.1740
     15 C         -4.427428   -0.916868   8.766505 C.3        1 UNL1     0.0520
     16 C         -4.321441   0.482606   8.176423 C.3        1 UNL1     0.1322
     17 O         -3.549919   0.467076   6.95512 O.3        1 UNL1     -0.4828
     18 C         -5.664172   1.209468   8.069327 C.ar        1 UNL1     -0.0067
     19 C         -5.686907   2.57295   7.7107 C.ar        1 UNL1     -0.0516
     20 C         -6.893896   3.279657   7.649824 C.ar        1 UNL1     -0.0198
     21 C         -8.081502   2.637584   7.951752 C.ar        1 UNL1     0.1169
     22 C         -8.09484   1.287125   8.275666 C.ar        1 UNL1     -0.0198
     23 C         -6.889896   0.575564   8.318652 C.ar        1 UNL1     -0.0516
     24 O         -9.233131   3.367689   7.91862 O.3        1 UNL1     -0.5068
     25 O         -5.877166   -2.688305   8.127131 O.2        1 UNL1     -0.2917
     26 O         -5.905126   -3.52578   5.564635 O.3        1 UNL1     -0.5058
     27 O         -0.238391   -0.303195   2.530054 O.3        1 UNL1     -0.3648
     28 O         0.219987   -1.93131   -0.657627 O.3        1 UNL1     -0.3841
     29 O         -2.4503   0.425162   -0.248418 O.3        1 UNL1     -0.3863
     30 O         -2.524979   -3.246653   -0.35935 O.3        1 UNL1     -0.3829
     31 H         0.576782   -1.939919   1.733425 H        1 UNL1     0.0937
     32 H         0.0   0.0   0.0 H        1 UNL1     0.0671
     33 H         -1.892297   -1.087131   -1.467163 H        1 UNL1     0.0649
     34 H         -3.885398   -1.746479   -0.026675 H        1 UNL1     0.0683
     35 H         -3.272232   -2.959083   2.014861 H        1 UNL1     0.1085
     36 H         -4.900306   -3.006386   3.27818 H        1 UNL1     0.0691
     37 H         -2.797553   0.553736   4.516788 H        1 UNL1     0.0691
     38 H         -3.436046   -1.337925   8.964997 H        1 UNL1     0.0385
     39 H         -4.998021   -0.929902   9.701402 H        1 UNL1     0.0385
     40 H         -3.720752   1.082983   8.873015 H        1 UNL1     0.0789
     41 H         -4.76732   3.101975   7.478011 H        1 UNL1     0.0623
     42 H         -6.897107   4.333752   7.383583 H        1 UNL1     0.0654
     43 H         -9.020745   0.77077   8.499245 H        1 UNL1     0.0654
     44 H         -6.938589   -0.480729   8.56506 H        1 UNL1     0.0623
     45 H         -9.189998   4.040391   8.617425 H        1 UNL1     0.2921
     46 H         -5.633312   -3.96533   6.385808 H        1 UNL1     0.2922
     47 H         0.506596   0.255283   2.267458 H        1 UNL1     0.2126
     48 H         1.17213   -1.779121   -0.502725 H        1 UNL1     0.2101
     49 H         -2.14382   0.979365   -0.983756 H        1 UNL1     0.2100
     50 H         -2.782162   -3.22054   -1.304278 H        1 UNL1     0.2102
@<TRIPOS>BOND
     1     1     2    1
     2     1     6    1
     3     2     3    1
     4     3     4    1
     5     3    29    1
     6     3    33    1
     7     4     5    1
     8     5     6    1
     9     5     7    1
    10     5    35    1
    11     7     8    1
    12     8     9   ar
    13     8    13   ar
    14     9    10   ar
    15     9    36    1
    16    10    11   ar
    17    10    26    1
    18    11    12   ar
    19    11    14    1
    20    12    13   ar
    21    12    17    1
    22    13    37    1
    23    14    15    1
    24    14    25    2
    25    15    16    1
    26    15    38    1
    27    15    39    1
    28    16    17    1
    29    16    18    1
    30    16    40    1
    31    18    19   ar
    32    18    23   ar
    33    19    20   ar
    34    19    41    1
    35    20    21   ar
    36    20    42    1
    37    21    22   ar
    38    21    24    1
    39    22    23   ar
    40    22    43    1
    41    23    44    1
    42    24    45    1
    43    26    46    1
    44    27    47    1
    45    28    48    1
    46    29    49    1
    47    30    50    1
    48     1    31    1
    49     1    27    1
    50     2    32    1
    51     2    28    1
    52     4    34    1
    53     4    30    1
