@<TRIPOS>MOLECULE
*****
 50 53 0 0 0
SMALL
GASTEIGER

@<TRIPOS>ATOM
     1 C         -0.345891   -1.336062   1.692957 C.3        1 UNL1     0.1889
     2 C         -0.469162   -0.973609   0.188506 C.3        1 UNL1     0.1342
     3 C         -1.908113   -0.948987   -0.34934 C.3        1 UNL1     0.1174
     4 C         -2.803175   -2.006501   0.301541 C.3        1 UNL1     0.1456
     5 C         -2.656806   -2.041655   1.833763 C.3        1 UNL1     0.2326
     6 O         -1.294462   -2.27027   2.186782 O.3        1 UNL1     -0.3076
     7 O         -3.226743   -0.894836   2.490495 O.3        1 UNL1     -0.4605
     8 C         -3.749023   -1.116121   3.752154 C.ar        1 UNL1     0.1310
     9 C         -4.578155   -2.18467   4.109982 C.ar        1 UNL1     0.0226
     10 C         -5.043421   -2.331819   5.422148 C.ar        1 UNL1     0.1343
     11 C         -4.671084   -1.42626   6.414704 C.ar        1 UNL1     0.1007
     12 C         -3.876947   -0.332323   6.060539 C.ar        1 UNL1     0.1389
     13 C         -3.411415   -0.183128   4.740519 C.ar        1 UNL1     0.0229
     14 C         -5.064999   -1.5804   7.83429 C.2        1 UNL1     0.1740
     15 C         -4.395526   -0.646202   8.798981 C.3        1 UNL1     0.0520
     16 C         -4.308317   0.730476   8.154692 C.3        1 UNL1     0.1322
     17 O         -3.539994   0.676886   6.932449 O.3        1 UNL1     -0.4828
     18 C         -5.660147   1.436265   8.023763 C.ar        1 UNL1     -0.0067
     19 C         -6.016194   2.028134   6.794481 C.ar        1 UNL1     -0.0516
     20 C         -7.223986   2.722112   6.654497 C.ar        1 UNL1     -0.0198
     21 C         -8.079028   2.837328   7.73591 C.ar        1 UNL1     0.1169
     22 C         -7.771615   2.23677   8.949856 C.ar        1 UNL1     -0.0198
     23 C         -6.572419   1.527009   9.084858 C.ar        1 UNL1     -0.0516
     24 O         -9.22872   3.552833   7.572628 O.3        1 UNL1     -0.5068
     25 O         -5.82517   -2.45862   8.233483 O.2        1 UNL1     -0.2917
     26 O         -5.849843   -3.395288   5.705525 O.3        1 UNL1     -0.5058
     27 O         -0.236278   -0.203405   2.540223 O.3        1 UNL1     -0.3648
     28 O         0.257779   -1.952156   -0.577462 O.3        1 UNL1     -0.3841
     29 O         -2.457602   0.367628   -0.267374 O.3        1 UNL1     -0.3863
     30 O         -2.462014   -3.306399   -0.227197 O.3        1 UNL1     -0.3829
     31 H         0.611158   -1.855606   1.812164 H        1 UNL1     0.0937
     32 H         0.0   0.0   0.0 H        1 UNL1     0.0671
     33 H         -1.869041   -1.18255   -1.422486 H        1 UNL1     0.0649
     34 H         -3.851309   -1.820117   0.042546 H        1 UNL1     0.0683
     35 H         -3.218109   -2.93579   2.132661 H        1 UNL1     0.1085
     36 H         -4.857705   -2.952942   3.39743 H        1 UNL1     0.0691
     37 H         -2.795397   0.67789   4.490196 H        1 UNL1     0.0691
     38 H         -3.398518   -1.047157   9.010492 H        1 UNL1     0.0385
     39 H         -4.963366   -0.629838   9.735501 H        1 UNL1     0.0385
     40 H         -3.713139   1.364714   8.825532 H        1 UNL1     0.0789
     41 H         -5.358026   1.95964   5.933217 H        1 UNL1     0.0623
     42 H         -7.481753   3.184297   5.704785 H        1 UNL1     0.0654
     43 H         -8.440981   2.30799   9.798848 H        1 UNL1     0.0654
     44 H         -6.369267   1.061552   10.044505 H        1 UNL1     0.0623
     45 H         -9.144741   4.088634   6.767282 H        1 UNL1     0.2921
     46 H         -5.45735   -3.916649   6.423539 H        1 UNL1     0.2922
     47 H         0.508533   0.349425   2.265459 H        1 UNL1     0.2126
     48 H         1.193458   -1.880112   -0.307191 H        1 UNL1     0.2101
     49 H         -2.018836   0.948869   -0.908808 H        1 UNL1     0.2100
     50 H         -2.697438   -3.316384   -1.178085 H        1 UNL1     0.2102
@<TRIPOS>BOND
     1     1     2    1
     2     1     6    1
     3     2     3    1
     4     3     4    1
     5     3    29    1
     6     3    33    1
     7     4     5    1
     8     5     6    1
     9     5     7    1
    10     5    35    1
    11     7     8    1
    12     8     9   ar
    13     8    13   ar
    14     9    10   ar
    15     9    36    1
    16    10    11   ar
    17    10    26    1
    18    11    12   ar
    19    11    14    1
    20    12    13   ar
    21    12    17    1
    22    13    37    1
    23    14    15    1
    24    14    25    2
    25    15    16    1
    26    15    38    1
    27    15    39    1
    28    16    17    1
    29    16    18    1
    30    16    40    1
    31    18    19   ar
    32    18    23   ar
    33    19    20   ar
    34    19    41    1
    35    20    21   ar
    36    20    42    1
    37    21    22   ar
    38    21    24    1
    39    22    23   ar
    40    22    43    1
    41    23    44    1
    42    24    45    1
    43    26    46    1
    44    27    47    1
    45    28    48    1
    46    29    49    1
    47    30    50    1
    48     1    31    1
    49     1    27    1
    50     2    32    1
    51     2    28    1
    52     4    34    1
    53     4    30    1
