@<TRIPOS>MOLECULE
*****
 50 53 0 0 0
SMALL
GASTEIGER

@<TRIPOS>ATOM
     1 C         -0.06574   1.133928   1.865661 C.3        1 UNL1     0.1889
     2 C         -0.536019   0.864504   0.410948 C.3        1 UNL1     0.1342
     3 C         -0.374564   2.05547   -0.546129 C.3        1 UNL1     0.1174
     4 C         -0.60683   3.403957   0.139984 C.3        1 UNL1     0.1456
     5 C         0.131681   3.516169   1.486228 C.3        1 UNL1     0.2326
     6 O         -0.267068   2.453721   2.349404 O.3        1 UNL1     -0.3076
     7 O         1.559958   3.627954   1.348943 O.3        1 UNL1     -0.4605
     8 C         2.065116   4.914675   1.297054 C.ar        1 UNL1     0.1310
     9 C         2.286043   5.651997   0.128787 C.ar        1 UNL1     0.0226
     10 C         2.786446   6.958423   0.181238 C.ar        1 UNL1     0.1343
     11 C         3.055881   7.568379   1.405656 C.ar        1 UNL1     0.1007
     12 C         2.878087   6.827687   2.577214 C.ar        1 UNL1     0.1389
     13 C         2.377426   5.513173   2.524076 C.ar        1 UNL1     0.0229
     14 C         3.506252   8.974634   1.522991 C.2        1 UNL1     0.1740
     15 C         3.53235   9.534029   2.915092 C.3        1 UNL1     0.0520
     16 C         4.061482   8.460342   3.855929 C.3        1 UNL1     0.1322
     17 O         3.213507   7.291051   3.828235 O.3        1 UNL1     -0.4828
     18 C         5.553137   8.166537   3.678821 C.ar        1 UNL1     -0.0067
     19 C         6.500224   9.142386   4.051594 C.ar        1 UNL1     -0.0516
     20 C         7.869714   8.92476   3.858978 C.ar        1 UNL1     -0.0198
     21 C         8.303403   7.74114   3.28908 C.ar        1 UNL1     0.1169
     22 C         7.397208   6.747408   2.942459 C.ar        1 UNL1     -0.0198
     23 C         6.028947   6.957229   3.151968 C.ar        1 UNL1     -0.0516
     24 O         9.64194   7.580242   3.082119 O.3        1 UNL1     -0.5068
     25 O         3.769249   9.68335   0.554984 O.2        1 UNL1     -0.2917
     26 O         2.980493   7.622903   -0.994516 O.3        1 UNL1     -0.5058
     27 O         1.25073   0.674945   2.128393 O.3        1 UNL1     -0.3648
     28 O         -1.934652   0.524321   0.439359 O.3        1 UNL1     -0.3841
     29 O         0.878964   1.990703   -1.229214 O.3        1 UNL1     -0.3863
     30 O         -2.021496   3.580734   0.37055 O.3        1 UNL1     -0.3829
     31 H         -0.699499   0.522815   2.517556 H        1 UNL1     0.0937
     32 H         0.0   0.0   -0.0 H        1 UNL1     0.0671
     33 H         -1.139143   1.961835   -1.329948 H        1 UNL1     0.0649
     34 H         -0.285035   4.218719   -0.518053 H        1 UNL1     0.0683
     35 H         -0.255477   4.444931   1.923709 H        1 UNL1     0.1085
     36 H         2.043826   5.254509   -0.85073 H        1 UNL1     0.0691
     37 H         2.249033   4.957371   3.450409 H        1 UNL1     0.0691
     38 H         2.50765   9.818539   3.176949 H        1 UNL1     0.0385
     39 H         4.151871   10.437257   2.927416 H        1 UNL1     0.0385
     40 H         3.961121   8.848106   4.878713 H        1 UNL1     0.0789
     41 H         6.184654   10.083503   4.49246 H        1 UNL1     0.0623
     42 H         8.589378   9.689839   4.1396 H        1 UNL1     0.0654
     43 H         7.727075   5.810655   2.509341 H        1 UNL1     0.0654
     44 H         5.349986   6.155081   2.879176 H        1 UNL1     0.0623
     45 H         9.981344   8.374458   2.638561 H        1 UNL1     0.2921
     46 H         2.601645   7.107247   -1.723889 H        1 UNL1     0.2922
     47 H         1.232577   -0.037686   2.782372 H        1 UNL1     0.2126
     48 H         -2.215927   0.575076   1.37319 H        1 UNL1     0.2101
     49 H         1.575193   2.38388   -0.679239 H        1 UNL1     0.2100
     50 H         -2.48837   3.408284   -0.473253 H        1 UNL1     0.2102
@<TRIPOS>BOND
     1     1     2    1
     2     1     6    1
     3     2     3    1
     4     3     4    1
     5     3    29    1
     6     3    33    1
     7     4     5    1
     8     5     6    1
     9     5     7    1
    10     5    35    1
    11     7     8    1
    12     8     9   ar
    13     8    13   ar
    14     9    10   ar
    15     9    36    1
    16    10    11   ar
    17    10    26    1
    18    11    12   ar
    19    11    14    1
    20    12    13   ar
    21    12    17    1
    22    13    37    1
    23    14    15    1
    24    14    25    2
    25    15    16    1
    26    15    38    1
    27    15    39    1
    28    16    17    1
    29    16    18    1
    30    16    40    1
    31    18    19   ar
    32    18    23   ar
    33    19    20   ar
    34    19    41    1
    35    20    21   ar
    36    20    42    1
    37    21    22   ar
    38    21    24    1
    39    22    23   ar
    40    22    43    1
    41    23    44    1
    42    24    45    1
    43    26    46    1
    44    27    47    1
    45    28    48    1
    46    29    49    1
    47    30    50    1
    48     1    31    1
    49     1    27    1
    50     2    32    1
    51     2    28    1
    52     4    34    1
    53     4    30    1
