@<TRIPOS>MOLECULE
*****
 50 53 0 0 0
SMALL
GASTEIGER

@<TRIPOS>ATOM
     1 C         -0.341708   -1.333359   1.695935 C.3        1 UNL1     0.1889
     2 C         -0.467438   -0.973961   0.190954 C.3        1 UNL1     0.1342
     3 C         -1.907105   -0.952556   -0.34511 C.3        1 UNL1     0.1174
     4 C         -2.799727   -2.010189   0.308919 C.3        1 UNL1     0.1456
     5 C         -2.651363   -2.042201   1.841018 C.3        1 UNL1     0.2326
     6 O         -1.288226   -2.268068   2.192742 O.3        1 UNL1     -0.3076
     7 O         -3.222217   -0.895002   2.496289 O.3        1 UNL1     -0.4605
     8 C         -3.735765   -1.113044   3.76209 C.ar        1 UNL1     0.1310
     9 C         -4.558043   -2.183589   4.129641 C.ar        1 UNL1     0.0226
     10 C         -5.01459   -2.327032   5.445274 C.ar        1 UNL1     0.1343
     11 C         -4.640084   -1.415569   6.431592 C.ar        1 UNL1     0.1007
     12 C         -3.852889   -0.319772   6.06781 C.ar        1 UNL1     0.1389
     13 C         -3.396134   -0.174316   4.744312 C.ar        1 UNL1     0.0229
     14 C         -5.024592   -1.565228   7.854233 C.2        1 UNL1     0.1740
     15 C         -4.353255   -0.623969   8.81073 C.3        1 UNL1     0.0520
     16 C         -4.275977   0.750257   8.15997 C.3        1 UNL1     0.1322
     17 O         -3.514958   0.694662   6.933255 O.3        1 UNL1     -0.4828
     18 C         -5.631632   1.44964   8.034332 C.ar        1 UNL1     -0.0067
     19 C         -6.004116   2.021603   6.800505 C.ar        1 UNL1     -0.0516
     20 C         -7.215812   2.7095   6.66429 C.ar        1 UNL1     -0.0198
     21 C         -8.058456   2.83841   7.753858 C.ar        1 UNL1     0.1169
     22 C         -7.734753   2.257371   8.973058 C.ar        1 UNL1     -0.0198
     23 C         -6.531658   1.55359   9.104632 C.ar        1 UNL1     -0.0516
     24 O         -9.212403   3.547665   7.593337 O.3        1 UNL1     -0.5068
     25 O         -5.77848   -2.44497   8.2619 O.2        1 UNL1     -0.2917
     26 O         -5.814637   -3.392722   5.738214 O.3        1 UNL1     -0.5058
     27 O         -0.23275   -0.198924   2.540903 O.3        1 UNL1     -0.3648
     28 O         0.260024   -1.952858   -0.574072 O.3        1 UNL1     -0.3841
     29 O         -2.458496   0.363375   -0.264952 O.3        1 UNL1     -0.3863
     30 O         -2.457254   -3.310571   -0.217777 O.3        1 UNL1     -0.3829
     31 H         0.616283   -1.851217   1.814915 H        1 UNL1     0.0937
     32 H         0.0   0.0   0.0 H        1 UNL1     0.0671
     33 H         -1.869036   -1.188103   -1.417858 H        1 UNL1     0.0649
     34 H         -3.848471   -1.825895   0.050901 H        1 UNL1     0.0683
     35 H         -3.210923   -2.936619   2.14233 H        1 UNL1     0.1085
     36 H         -4.838636   -2.95615   3.422154 H        1 UNL1     0.0691
     37 H         -2.785403   0.688251   4.486474 H        1 UNL1     0.0691
     38 H         -3.353237   -1.019701   9.017819 H        1 UNL1     0.0385
     39 H         -4.915391   -0.605977   9.750654 H        1 UNL1     0.0385
     40 H         -3.679439   1.389964   8.824378 H        1 UNL1     0.0789
     41 H         -5.3559   1.942127   5.932663 H        1 UNL1     0.0623
     42 H         -7.486296   3.156361   5.710788 H        1 UNL1     0.0654
     43 H         -8.394321   2.33935   9.828721 H        1 UNL1     0.0654
     44 H         -6.315657   1.103434   10.068763 H        1 UNL1     0.0623
     45 H         -8.981238   4.457188   7.344245 H        1 UNL1     0.2921
     46 H         -5.415136   -3.909648   6.45557 H        1 UNL1     0.2922
     47 H         0.511713   0.353803   2.26499 H        1 UNL1     0.2126
     48 H         1.193639   -1.888618   -0.294842 H        1 UNL1     0.2101
     49 H         -2.015704   0.946107   -0.902254 H        1 UNL1     0.2100
     50 H         -2.688637   -3.320819   -1.169654 H        1 UNL1     0.2102
@<TRIPOS>BOND
     1     1     2    1
     2     1     6    1
     3     2     3    1
     4     3     4    1
     5     3    29    1
     6     3    33    1
     7     4     5    1
     8     5     6    1
     9     5     7    1
    10     5    35    1
    11     7     8    1
    12     8     9   ar
    13     8    13   ar
    14     9    10   ar
    15     9    36    1
    16    10    11   ar
    17    10    26    1
    18    11    12   ar
    19    11    14    1
    20    12    13   ar
    21    12    17    1
    22    13    37    1
    23    14    15    1
    24    14    25    2
    25    15    16    1
    26    15    38    1
    27    15    39    1
    28    16    17    1
    29    16    18    1
    30    16    40    1
    31    18    19   ar
    32    18    23   ar
    33    19    20   ar
    34    19    41    1
    35    20    21   ar
    36    20    42    1
    37    21    22   ar
    38    21    24    1
    39    22    23   ar
    40    22    43    1
    41    23    44    1
    42    24    45    1
    43    26    46    1
    44    27    47    1
    45    28    48    1
    46    29    49    1
    47    30    50    1
    48     1    31    1
    49     1    27    1
    50     2    32    1
    51     2    28    1
    52     4    34    1
    53     4    30    1
