@<TRIPOS>MOLECULE
*****
 50 53 0 0 0
SMALL
GASTEIGER

@<TRIPOS>ATOM
     1 C         -0.336534   -1.33205   1.697997 C.3        1 UNL1     0.1889
     2 C         -0.46451   -0.975029   0.19264 C.3        1 UNL1     0.1342
     3 C         -1.904668   -0.958437   -0.342277 C.3        1 UNL1     0.1174
     4 C         -2.793746   -2.017726   0.313896 C.3        1 UNL1     0.1456
     5 C         -2.644046   -2.047261   1.845915 C.3        1 UNL1     0.2326
     6 O         -1.279986   -2.268779   2.196827 O.3        1 UNL1     -0.3076
     7 O         -3.217628   -0.900812   2.500116 O.3        1 UNL1     -0.4605
     8 C         -3.729524   -1.118616   3.766627 C.ar        1 UNL1     0.1310
     9 C         -4.548454   -2.191001   4.136282 C.ar        1 UNL1     0.0226
     10 C         -5.003521   -2.333977   5.452479 C.ar        1 UNL1     0.1343
     11 C         -4.630808   -1.420131   6.437269 C.ar        1 UNL1     0.1007
     12 C         -3.847029   -0.322589   6.071378 C.ar        1 UNL1     0.1389
     13 C         -3.391766   -0.17761   4.747313 C.ar        1 UNL1     0.0229
     14 C         -5.013732   -1.568975   7.860423 C.2        1 UNL1     0.1740
     15 C         -4.344297   -0.624529   8.81511 C.3        1 UNL1     0.0520
     16 C         -4.271458   0.749038   8.162449 C.3        1 UNL1     0.1322
     17 O         -3.511282   0.693961   6.935188 O.3        1 UNL1     -0.4828
     18 C         -5.629199   1.444394   8.036981 C.ar        1 UNL1     -0.0067
     19 C         -6.004311   2.01364   6.802695 C.ar        1 UNL1     -0.0516
     20 C         -7.218069   2.697906   6.666549 C.ar        1 UNL1     -0.0198
     21 C         -8.060191   2.82588   7.756632 C.ar        1 UNL1     0.1169
     22 C         -7.733844   2.2474   8.976343 C.ar        1 UNL1     -0.0198
     23 C         -6.528646   1.547219   9.107876 C.ar        1 UNL1     -0.0516
     24 O         -9.21628   3.531635   7.596103 O.3        1 UNL1     -0.5068
     25 O         -5.764783   -2.45031   8.269883 O.2        1 UNL1     -0.2917
     26 O         -5.800296   -3.401544   5.747499 O.3        1 UNL1     -0.5058
     27 O         -0.230117   -0.196177   2.541357 O.3        1 UNL1     -0.3648
     28 O         0.265111   -1.952879   -0.571669 O.3        1 UNL1     -0.3841
     29 O         -2.459735   0.356028   -0.26343 O.3        1 UNL1     -0.3863
     30 O         -2.448004   -3.317834   -0.211338 O.3        1 UNL1     -0.3829
     31 H         0.623021   -1.847022   1.816888 H        1 UNL1     0.0937
     32 H         0.0   0.0   0.0 H        1 UNL1     0.0671
     33 H         -1.866801   -1.195313   -1.41474 H        1 UNL1     0.0649
     34 H         -3.843219   -1.836761   0.056488 H        1 UNL1     0.0683
     35 H         -3.200814   -2.942861   2.148881 H        1 UNL1     0.1085
     36 H         -4.827424   -2.965305   3.430059 H        1 UNL1     0.0691
     37 H         -2.783701   0.686343   4.487822 H        1 UNL1     0.0691
     38 H         -3.34299   -1.017139   9.021912 H        1 UNL1     0.0385
     39 H         -4.905718   -0.606876   9.755468 H        1 UNL1     0.0385
     40 H         -3.676202   1.391328   8.825512 H        1 UNL1     0.0789
     41 H         -5.356577   1.934844   5.934431 H        1 UNL1     0.0623
     42 H         -7.490598   3.142717   5.712671 H        1 UNL1     0.0654
     43 H         -8.392948   2.32865   9.832434 H        1 UNL1     0.0654
     44 H         -6.310582   1.098972   10.072432 H        1 UNL1     0.0623
     45 H         -8.987839   4.442208   7.348336 H        1 UNL1     0.2921
     46 H         -5.399089   -3.915981   6.46569 H        1 UNL1     0.2922
     47 H         0.512546   0.358293   2.264095 H        1 UNL1     0.2126
     48 H         1.200589   -1.877816   -0.30152 H        1 UNL1     0.2101
     49 H         -2.021023   0.938473   -0.903808 H        1 UNL1     0.2100
     50 H         -2.685354   -3.331937   -1.161695 H        1 UNL1     0.2102
@<TRIPOS>BOND
     1     1     2    1
     2     1     6    1
     3     2     3    1
     4     3     4    1
     5     3    29    1
     6     3    33    1
     7     4     5    1
     8     5     6    1
     9     5     7    1
    10     5    35    1
    11     7     8    1
    12     8     9   ar
    13     8    13   ar
    14     9    10   ar
    15     9    36    1
    16    10    11   ar
    17    10    26    1
    18    11    12   ar
    19    11    14    1
    20    12    13   ar
    21    12    17    1
    22    13    37    1
    23    14    15    1
    24    14    25    2
    25    15    16    1
    26    15    38    1
    27    15    39    1
    28    16    17    1
    29    16    18    1
    30    16    40    1
    31    18    19   ar
    32    18    23   ar
    33    19    20   ar
    34    19    41    1
    35    20    21   ar
    36    20    42    1
    37    21    22   ar
    38    21    24    1
    39    22    23   ar
    40    22    43    1
    41    23    44    1
    42    24    45    1
    43    26    46    1
    44    27    47    1
    45    28    48    1
    46    29    49    1
    47    30    50    1
    48     1    31    1
    49     1    27    1
    50     2    32    1
    51     2    28    1
    52     4    34    1
    53     4    30    1
