@<TRIPOS>MOLECULE
*****
 50 53 0 0 0
SMALL
GASTEIGER

@<TRIPOS>ATOM
     1 C         1.389105   -1.64514   -0.367024 C.3        1 UNL1     0.1889
     2 C         0.593595   -0.712792   0.585777 C.3        1 UNL1     0.1342
     3 C         1.456957   0.062486   1.59276 C.3        1 UNL1     0.1174
     4 C         2.670005   -0.737466   2.074122 C.3        1 UNL1     0.1456
     5 C         3.427591   -1.414214   0.917213 C.3        1 UNL1     0.2326
     6 O         2.543099   -2.260476   0.186197 O.3        1 UNL1     -0.3076
     7 O         4.143815   -0.487218   0.081138 O.3        1 UNL1     -0.4605
     8 C         5.250626   0.114299   0.652693 C.ar        1 UNL1     0.1310
     9 C         6.265828   -0.551128   1.348302 C.ar        1 UNL1     0.0226
     10 C         7.358156   0.146681   1.877248 C.ar        1 UNL1     0.1343
     11 C         7.47389   1.52507   1.702632 C.ar        1 UNL1     0.1007
     12 C         6.445919   2.206289   1.045366 C.ar        1 UNL1     0.1389
     13 C         5.34638   1.50478   0.515904 C.ar        1 UNL1     0.0229
     14 C         8.647623   2.299953   2.167455 C.2        1 UNL1     0.1740
     15 C         8.710926   3.724829   1.701332 C.3        1 UNL1     0.0520
     16 C         7.308493   4.3143   1.761855 C.3        1 UNL1     0.1322
     17 O         6.404284   3.574756   0.911825 O.3        1 UNL1     -0.4828
     18 C         6.796739   4.541956   3.186287 C.ar        1 UNL1     -0.0067
     19 C         5.475918   4.994406   3.3836 C.ar        1 UNL1     -0.0516
     20 C         4.991578   5.257901   4.670436 C.ar        1 UNL1     -0.0198
     21 C         5.818624   5.080321   5.7651 C.ar        1 UNL1     0.1169
     22 C         7.113387   4.603919   5.605511 C.ar        1 UNL1     -0.0198
     23 C         7.592021   4.322738   4.320247 C.ar        1 UNL1     -0.0516
     24 O         5.324332   5.383271   6.999724 O.3        1 UNL1     -0.5068
     25 O         9.563369   1.811399   2.82412 O.2        1 UNL1     -0.2917
     26 O         8.313722   -0.561275   2.546036 O.3        1 UNL1     -0.5058
     27 O         1.661709   -1.061899   -1.631265 O.3        1 UNL1     -0.3648
     28 O         -0.330761   -1.515853   1.342986 O.3        1 UNL1     -0.3841
     29 O         1.810884   1.346334   1.074491 O.3        1 UNL1     -0.3863
     30 O         2.22946   -1.755588   2.998804 O.3        1 UNL1     -0.3829
     31 H         0.732667   -2.491614   -0.596478 H        1 UNL1     0.0937
     32 H         0.0   0.0   0.0 H        1 UNL1     0.0671
     33 H         0.838542   0.265647   2.478202 H        1 UNL1     0.0649
     34 H         3.356559   -0.082429   2.621818 H        1 UNL1     0.0683
     35 H         4.150685   -2.067806   1.42103 H        1 UNL1     0.1085
     36 H         6.262267   -1.628832   1.469391 H        1 UNL1     0.0691
     37 H         4.558776   2.058562   0.009448 H        1 UNL1     0.0691
     38 H         9.093754   3.720901   0.675196 H        1 UNL1     0.0385
     39 H         9.419385   4.276544   2.328607 H        1 UNL1     0.0385
     40 H         7.357311   5.313152   1.307508 H        1 UNL1     0.0789
     41 H         4.809865   5.150398   2.539982 H        1 UNL1     0.0623
     42 H         3.975003   5.617745   4.808632 H        1 UNL1     0.0654
     43 H         7.764628   4.446944   6.457071 H        1 UNL1     0.0654
     44 H         8.605083   3.941931   4.233436 H        1 UNL1     0.0623
     45 H         6.000953   5.168521   7.662131 H        1 UNL1     0.2921
     46 H         9.031244   0.035154   2.812206 H        1 UNL1     0.2922
     47 H         2.537789   -0.651609   -1.628804 H        1 UNL1     0.2126
     48 H         -1.047871   -1.769405   0.730453 H        1 UNL1     0.2101
     49 H         1.199043   2.019117   1.413324 H        1 UNL1     0.2100
     50 H         2.938743   -2.427836   3.067449 H        1 UNL1     0.2102
@<TRIPOS>BOND
     1     1     2    1
     2     1     6    1
     3     2     3    1
     4     3     4    1
     5     3    29    1
     6     3    33    1
     7     4     5    1
     8     5     6    1
     9     5     7    1
    10     5    35    1
    11     7     8    1
    12     8     9   ar
    13     8    13   ar
    14     9    10   ar
    15     9    36    1
    16    10    11   ar
    17    10    26    1
    18    11    12   ar
    19    11    14    1
    20    12    13   ar
    21    12    17    1
    22    13    37    1
    23    14    15    1
    24    14    25    2
    25    15    16    1
    26    15    38    1
    27    15    39    1
    28    16    17    1
    29    16    18    1
    30    16    40    1
    31    18    19   ar
    32    18    23   ar
    33    19    20   ar
    34    19    41    1
    35    20    21   ar
    36    20    42    1
    37    21    22   ar
    38    21    24    1
    39    22    23   ar
    40    22    43    1
    41    23    44    1
    42    24    45    1
    43    26    46    1
    44    27    47    1
    45    28    48    1
    46    29    49    1
    47    30    50    1
    48     1    31    1
    49     1    27    1
    50     2    32    1
    51     2    28    1
    52     4    34    1
    53     4    30    1
