@<TRIPOS>MOLECULE
*****
 50 53 0 0 0
SMALL
GASTEIGER

@<TRIPOS>ATOM
     1 C         -0.334866   -1.330028   1.69991 C.3        1 UNL1     0.1889
     2 C         -0.464075   -0.974926   0.194205 C.3        1 UNL1     0.1342
     3 C         -1.904638   -0.959428   -0.339652 C.3        1 UNL1     0.1174
     4 C         -2.792909   -2.018161   0.318509 C.3        1 UNL1     0.1456
     5 C         -2.642053   -2.045739   1.850451 C.3        1 UNL1     0.2326
     6 O         -1.277665   -2.266414   2.200617 O.3        1 UNL1     -0.3076
     7 O         -3.215485   -0.898644   2.50365 O.3        1 UNL1     -0.4605
     8 C         -3.726368   -1.115019   3.770815 C.ar        1 UNL1     0.1310
     9 C         -4.544702   -2.187184   4.142423 C.ar        1 UNL1     0.0226
     10 C         -4.99874   -2.328652   5.459138 C.ar        1 UNL1     0.1343
     11 C         -4.625561   -1.413466   6.442506 C.ar        1 UNL1     0.1007
     12 C         -3.842383   -0.316149   6.074658 C.ar        1 UNL1     0.1389
     13 C         -3.388155   -0.172689   4.750073 C.ar        1 UNL1     0.0229
     14 C         -5.007374   -1.560647   7.866132 C.2        1 UNL1     0.1740
     15 C         -4.337505   -0.614811   8.819137 C.3        1 UNL1     0.0520
     16 C         -4.265563   0.757961   8.164707 C.3        1 UNL1     0.1322
     17 O         -3.506291   0.701578   6.936946 O.3        1 UNL1     -0.4828
     18 C         -5.623605   1.452757   8.039389 C.ar        1 UNL1     -0.0067
     19 C         -5.999812   2.02035   6.804675 C.ar        1 UNL1     -0.0516
     20 C         -7.213875   2.704086   6.668585 C.ar        1 UNL1     -0.0198
     21 C         -8.055218   2.833172   7.759138 C.ar        1 UNL1     0.1169
     22 C         -7.727785   2.256311   8.979325 C.ar        1 UNL1     -0.0198
     23 C         -6.522281   1.556653   9.110829 C.ar        1 UNL1     -0.0516
     24 O         -9.211637   3.538382   7.598595 O.3        1 UNL1     -0.5068
     25 O         -5.757856   -2.441692   8.277254 O.2        1 UNL1     -0.2917
     26 O         -5.794975   -3.396086   5.756087 O.3        1 UNL1     -0.5058
     27 O         -0.228154   -0.193072   2.541771 O.3        1 UNL1     -0.3648
     28 O         0.265264   -1.953513   -0.569429 O.3        1 UNL1     -0.3841
     29 O         -2.460037   0.354968   -0.262031 O.3        1 UNL1     -0.3863
     30 O         -2.447173   -3.318822   -0.20536 O.3        1 UNL1     -0.3829
     31 H         0.624932   -1.844567   1.818724 H        1 UNL1     0.0937
     32 H         0.0   0.0   0.0 H        1 UNL1     0.0671
     33 H         -1.867505   -1.197632   -1.411846 H        1 UNL1     0.0649
     34 H         -3.842629   -1.837829   0.061662 H        1 UNL1     0.0683
     35 H         -3.198327   -2.941126   2.154952 H        1 UNL1     0.1085
     36 H         -4.82397   -2.962452   3.437376 H        1 UNL1     0.0691
     37 H         -2.780542   0.69112   4.489048 H        1 UNL1     0.0691
     38 H         -3.335926   -1.006865   9.025678 H        1 UNL1     0.0385
     39 H         -4.898227   -0.59615   9.759893 H        1 UNL1     0.0385
     40 H         -3.670003   1.401256   8.826522 H        1 UNL1     0.0789
     41 H         -5.352705   1.940662   5.936025 H        1 UNL1     0.0623
     42 H         -7.487251   3.147624   5.714357 H        1 UNL1     0.0654
     43 H         -8.386271   2.338435   9.835808 H        1 UNL1     0.0654
     44 H         -6.30336   1.109675   10.07578 H        1 UNL1     0.0623
     45 H         -8.983873   4.44649   7.34134 H        1 UNL1     0.2921
     46 H         -5.392387   -3.910284   6.473677 H        1 UNL1     0.2922
     47 H         0.515826   0.359855   2.264961 H        1 UNL1     0.2126
     48 H         1.198156   -1.889525   -0.287735 H        1 UNL1     0.2101
     49 H         -2.020075   0.937435   -0.901531 H        1 UNL1     0.2100
     50 H         -2.680009   -3.332261   -1.156843 H        1 UNL1     0.2102
@<TRIPOS>BOND
     1     1     2    1
     2     1     6    1
     3     2     3    1
     4     3     4    1
     5     3    29    1
     6     3    33    1
     7     4     5    1
     8     5     6    1
     9     5     7    1
    10     5    35    1
    11     7     8    1
    12     8     9   ar
    13     8    13   ar
    14     9    10   ar
    15     9    36    1
    16    10    11   ar
    17    10    26    1
    18    11    12   ar
    19    11    14    1
    20    12    13   ar
    21    12    17    1
    22    13    37    1
    23    14    15    1
    24    14    25    2
    25    15    16    1
    26    15    38    1
    27    15    39    1
    28    16    17    1
    29    16    18    1
    30    16    40    1
    31    18    19   ar
    32    18    23   ar
    33    19    20   ar
    34    19    41    1
    35    20    21   ar
    36    20    42    1
    37    21    22   ar
    38    21    24    1
    39    22    23   ar
    40    22    43    1
    41    23    44    1
    42    24    45    1
    43    26    46    1
    44    27    47    1
    45    28    48    1
    46    29    49    1
    47    30    50    1
    48     1    31    1
    49     1    27    1
    50     2    32    1
    51     2    28    1
    52     4    34    1
    53     4    30    1
