@<TRIPOS>MOLECULE
*****
 50 53 0 0 0
SMALL
GASTEIGER

@<TRIPOS>ATOM
     1 C         -0.353192   -1.378364   1.657158 C.3        1 UNL1     0.1889
     2 C         -0.476044   -0.974845   0.163163 C.3        1 UNL1     0.1342
     3 C         -1.915579   -0.925278   -0.371389 C.3        1 UNL1     0.1174
     4 C         -2.817436   -1.99326   0.252458 C.3        1 UNL1     0.1456
     5 C         -2.669032   -2.070521   1.782939 C.3        1 UNL1     0.2326
     6 O         -1.307883   -2.318489   2.127399 O.3        1 UNL1     -0.3076
     7 O         -3.229514   -0.93756   2.47111 O.3        1 UNL1     -0.4605
     8 C         -3.75492   -1.189462   3.725711 C.ar        1 UNL1     0.1310
     9 C         -4.593735   -2.260273   4.052901 C.ar        1 UNL1     0.0226
     10 C         -5.061527   -2.439986   5.360103 C.ar        1 UNL1     0.1343
     11 C         -4.682208   -1.565866   6.377881 C.ar        1 UNL1     0.1007
     12 C         -3.878168   -0.469474   6.055039 C.ar        1 UNL1     0.1389
     13 C         -3.410085   -0.287499   4.740043 C.ar        1 UNL1     0.0229
     14 C         -5.078816   -1.756201   7.792317 C.2        1 UNL1     0.1740
     15 C         -4.402095   -0.85529   8.783254 C.3        1 UNL1     0.0520
     16 C         -4.302197   0.538059   8.177814 C.3        1 UNL1     0.1322
     17 O         -3.533208   0.511937   6.955095 O.3        1 UNL1     -0.4828
     18 C         -5.647659   1.259098   8.065735 C.ar        1 UNL1     -0.0067
     19 C         -5.701912   2.535056   7.468071 C.ar        1 UNL1     -0.0516
     20 C         -6.907882   3.242054   7.392234 C.ar        1 UNL1     -0.0198
     21 C         -8.06251   2.688373   7.91578 C.ar        1 UNL1     0.1169
     22 C         -8.047448   1.419614   8.480458 C.ar        1 UNL1     -0.0198
     23 C         -6.845228   0.704636   8.53986 C.ar        1 UNL1     -0.0516
     24 O         -9.210685   3.422347   7.857659 O.3        1 UNL1     -0.5068
     25 O         -5.847041   -2.638528   8.166232 O.2        1 UNL1     -0.2917
     26 O         -5.877516   -3.503834   5.613029 O.3        1 UNL1     -0.5058
     27 O         -0.233962   -0.269645   2.534262 O.3        1 UNL1     -0.3648
     28 O         0.242515   -1.937823   -0.629965 O.3        1 UNL1     -0.3841
     29 O         -2.455223   0.392661   -0.253265 O.3        1 UNL1     -0.3863
     30 O         -2.48666   -3.280993   -0.311476 O.3        1 UNL1     -0.3829
     31 H         0.600178   -1.907916   1.760786 H        1 UNL1     0.0937
     32 H         0.0   0.0   0.0 H        1 UNL1     0.0671
     33 H         -1.879839   -1.130288   -1.45047 H        1 UNL1     0.0649
     34 H         -3.864554   -1.792328   0.000326 H        1 UNL1     0.0683
     35 H         -3.236463   -2.968204   2.058739 H        1 UNL1     0.1085
     36 H         -4.879332   -3.005815   3.318924 H        1 UNL1     0.0691
     37 H         -2.786298   0.574736   4.514356 H        1 UNL1     0.0691
     38 H         -3.408844   -1.27076   8.984166 H        1 UNL1     0.0385
     39 H         -4.970663   -0.860146   9.719462 H        1 UNL1     0.0385
     40 H         -3.702119   1.148016   8.866566 H        1 UNL1     0.0789
     41 H         -4.807698   2.995303   7.057945 H        1 UNL1     0.0623
     42 H         -6.934477   4.230208   6.939623 H        1 UNL1     0.0654
     43 H         -8.948798   0.970294   8.879946 H        1 UNL1     0.0654
     44 H         -6.872196   -0.288279   8.978308 H        1 UNL1     0.0623
     45 H         -9.083976   4.231757   8.378734 H        1 UNL1     0.2921
     46 H         -5.501455   -4.036342   6.331656 H        1 UNL1     0.2922
     47 H         0.504303   0.293744   2.263309 H        1 UNL1     0.2126
     48 H         1.182521   -1.864002   -0.37566 H        1 UNL1     0.2101
     49 H         -2.013387   0.987569   -0.87989 H        1 UNL1     0.2100
     50 H         -2.723577   -3.263775   -1.26189 H        1 UNL1     0.2102
@<TRIPOS>BOND
     1     1     2    1
     2     1     6    1
     3     2     3    1
     4     3     4    1
     5     3    29    1
     6     3    33    1
     7     4     5    1
     8     5     6    1
     9     5     7    1
    10     5    35    1
    11     7     8    1
    12     8     9   ar
    13     8    13   ar
    14     9    10   ar
    15     9    36    1
    16    10    11   ar
    17    10    26    1
    18    11    12   ar
    19    11    14    1
    20    12    13   ar
    21    12    17    1
    22    13    37    1
    23    14    15    1
    24    14    25    2
    25    15    16    1
    26    15    38    1
    27    15    39    1
    28    16    17    1
    29    16    18    1
    30    16    40    1
    31    18    19   ar
    32    18    23   ar
    33    19    20   ar
    34    19    41    1
    35    20    21   ar
    36    20    42    1
    37    21    22   ar
    38    21    24    1
    39    22    23   ar
    40    22    43    1
    41    23    44    1
    42    24    45    1
    43    26    46    1
    44    27    47    1
    45    28    48    1
    46    29    49    1
    47    30    50    1
    48     1    31    1
    49     1    27    1
    50     2    32    1
    51     2    28    1
    52     4    34    1
    53     4    30    1
