@<TRIPOS>MOLECULE
*****
 50 53 0 0 0
SMALL
GASTEIGER

@<TRIPOS>ATOM
     1 C         -0.286058   -1.399259   1.652589 C.3        1 UNL1     0.1889
     2 C         -0.452716   -0.985477   0.165662 C.3        1 UNL1     0.1342
     3 C         -1.905387   -0.959961   -0.3339 C.3        1 UNL1     0.1174
     4 C         -2.770799   -2.050966   0.301621 C.3        1 UNL1     0.1456
     5 C         -2.584142   -2.138369   1.827362 C.3        1 UNL1     0.2326
     6 O         -1.210488   -2.36217   2.136971 O.3        1 UNL1     -0.3076
     7 O         -3.150088   -1.022711   2.538932 O.3        1 UNL1     -0.4605
     8 C         -3.640114   -1.295746   3.80339 C.ar        1 UNL1     0.1310
     9 C         -4.443879   -2.389573   4.142216 C.ar        1 UNL1     0.0226
     10 C         -4.876947   -2.589308   5.458446 C.ar        1 UNL1     0.1343
     11 C         -4.496664   -1.712214   6.473302 C.ar        1 UNL1     0.1007
     12 C         -3.728201   -0.593725   6.139787 C.ar        1 UNL1     0.1389
     13 C         -3.295078   -0.391673   4.815775 C.ar        1 UNL1     0.0229
     14 C         -4.855867   -1.921428   7.895046 C.2        1 UNL1     0.1740
     15 C         -4.179648   -1.009818   8.876496 C.3        1 UNL1     0.0520
     16 C         -4.128892   0.389384   8.278488 C.3        1 UNL1     0.1322
     17 O         -3.387664   0.390487   7.038468 O.3        1 UNL1     -0.4828
     18 C         -5.494367   1.076656   8.201932 C.ar        1 UNL1     -0.0067
     19 C         -5.643468   2.234687   7.411396 C.ar        1 UNL1     -0.0516
     20 C         -6.866006   2.914678   7.35685 C.ar        1 UNL1     -0.0198
     21 C         -7.942487   2.451979   8.092326 C.ar        1 UNL1     0.1169
     22 C         -7.836155   1.295394   8.853801 C.ar        1 UNL1     -0.0198
     23 C         -6.61899   0.604778   8.893992 C.ar        1 UNL1     -0.0516
     24 O         -9.10624   3.161737   8.044119 O.3        1 UNL1     -0.5068
     25 O         -5.592781   -2.825333   8.28027 O.2        1 UNL1     -0.2917
     26 O         -5.659775   -3.675129   5.722558 O.3        1 UNL1     -0.5058
     27 O         -0.1676   -0.295942   2.536585 O.3        1 UNL1     -0.3648
     28 O         0.265362   -1.927151   -0.653068 O.3        1 UNL1     -0.3841
     29 O         -2.467852   0.345929   -0.191015 O.3        1 UNL1     -0.3863
     30 O         -2.428417   -3.32699   -0.281668 O.3        1 UNL1     -0.3829
     31 H         0.67976   -1.910621   1.728635 H        1 UNL1     0.0937
     32 H         0.0   0.0   0.0 H        1 UNL1     0.0671
     33 H         -1.891582   -1.154968   -1.415335 H        1 UNL1     0.0649
     34 H         -3.827427   -1.868737   0.076387 H        1 UNL1     0.0683
     35 H         -3.12701   -3.049485   2.108504 H        1 UNL1     0.1085
     36 H         -4.727253   -3.137528   3.409834 H        1 UNL1     0.0691
     37 H         -2.69862   0.487545   4.58188 H        1 UNL1     0.0691
     38 H         -3.171873   -1.401141   9.051949 H        1 UNL1     0.0385
     39 H         -4.726343   -1.034996   9.825321 H        1 UNL1     0.0385
     40 H         -3.528827   1.010082   8.957589 H        1 UNL1     0.0789
     41 H         -4.811002   2.623252   6.832028 H        1 UNL1     0.0623
     42 H         -6.965015   3.813271   6.752913 H        1 UNL1     0.0654
     43 H         -8.677139   0.9158   9.421748 H        1 UNL1     0.0654
     44 H         -6.574665   -0.301071   9.490916 H        1 UNL1     0.0623
     45 H         -8.940632   4.047253   8.406267 H        1 UNL1     0.2921
     46 H         -5.254026   -4.20239   6.428799 H        1 UNL1     0.2922
     47 H         0.552712   0.284313   2.253187 H        1 UNL1     0.2126
     48 H         1.21355   -1.805134   -0.453605 H        1 UNL1     0.2101
     49 H         -2.052999   0.954849   -0.822607 H        1 UNL1     0.2100
     50 H         -2.708994   -3.314502   -1.220195 H        1 UNL1     0.2102
@<TRIPOS>BOND
     1     1     2    1
     2     1     6    1
     3     2     3    1
     4     3     4    1
     5     3    29    1
     6     3    33    1
     7     4     5    1
     8     5     6    1
     9     5     7    1
    10     5    35    1
    11     7     8    1
    12     8     9   ar
    13     8    13   ar
    14     9    10   ar
    15     9    36    1
    16    10    11   ar
    17    10    26    1
    18    11    12   ar
    19    11    14    1
    20    12    13   ar
    21    12    17    1
    22    13    37    1
    23    14    15    1
    24    14    25    2
    25    15    16    1
    26    15    38    1
    27    15    39    1
    28    16    17    1
    29    16    18    1
    30    16    40    1
    31    18    19   ar
    32    18    23   ar
    33    19    20   ar
    34    19    41    1
    35    20    21   ar
    36    20    42    1
    37    21    22   ar
    38    21    24    1
    39    22    23   ar
    40    22    43    1
    41    23    44    1
    42    24    45    1
    43    26    46    1
    44    27    47    1
    45    28    48    1
    46    29    49    1
    47    30    50    1
    48     1    31    1
    49     1    27    1
    50     2    32    1
    51     2    28    1
    52     4    34    1
    53     4    30    1
