@<TRIPOS>MOLECULE
*****
 50 53 0 0 0
SMALL
GASTEIGER

@<TRIPOS>ATOM
     1 C         -0.334042   -1.329813   1.700241 C.3        1 UNL1     0.1889
     2 C         -0.463384   -0.97521   0.194429 C.3        1 UNL1     0.1342
     3 C         -1.903913   -0.960902   -0.339553 C.3        1 UNL1     0.1174
     4 C         -2.79147   -2.020102   0.31882 C.3        1 UNL1     0.1456
     5 C         -2.640721   -2.047158   1.850782 C.3        1 UNL1     0.2326
     6 O         -1.276203   -2.266748   2.201121 O.3        1 UNL1     -0.3076
     7 O         -3.215041   -0.900304   2.503624 O.3        1 UNL1     -0.4605
     8 C         -3.725872   -1.116708   3.770805 C.ar        1 UNL1     0.1310
     9 C         -4.543459   -2.189367   4.142633 C.ar        1 UNL1     0.0226
     10 C         -4.997504   -2.330809   5.459348 C.ar        1 UNL1     0.1343
     11 C         -4.625072   -1.415088   6.442501 C.ar        1 UNL1     0.1007
     12 C         -3.84266   -0.317302   6.074423 C.ar        1 UNL1     0.1389
     13 C         -3.388425   -0.173868   4.749837 C.ar        1 UNL1     0.0229
     14 C         -5.006897   -1.562162   7.866135 C.2        1 UNL1     0.1740
     15 C         -4.337795   -0.615583   8.818941 C.3        1 UNL1     0.0520
     16 C         -4.266795   0.757065   8.164147 C.3        1 UNL1     0.1322
     17 O         -3.507379   0.700901   6.936464 O.3        1 UNL1     -0.4828
     18 C         -5.62533   1.450841   8.038529 C.ar        1 UNL1     -0.0067
     19 C         -6.001846   2.017828   6.80363 C.ar        1 UNL1     -0.0516
     20 C         -7.216393   2.700645   6.667254 C.ar        1 UNL1     -0.0198
     21 C         -8.057921   2.829414   7.757702 C.ar        1 UNL1     0.1169
     22 C         -7.730172   2.25312   8.978073 C.ar        1 UNL1     -0.0198
     23 C         -6.52417   1.554372   9.109865 C.ar        1 UNL1     -0.0516
     24 O         -9.214838   3.533741   7.596873 O.3        1 UNL1     -0.5068
     25 O         -5.756773   -2.443641   8.277432 O.2        1 UNL1     -0.2917
     26 O         -5.792989   -3.398741   5.756519 O.3        1 UNL1     -0.5058
     27 O         -0.228226   -0.192553   2.541804 O.3        1 UNL1     -0.3648
     28 O         0.26673   -1.953473   -0.568881 O.3        1 UNL1     -0.3841
     29 O         -2.460272   0.353112   -0.262331 O.3        1 UNL1     -0.3863
     30 O         -2.444746   -3.320653   -0.20467 O.3        1 UNL1     -0.3829
     31 H         0.626119   -1.843622   1.819274 H        1 UNL1     0.0937
     32 H         0.0   0.0   0.0 H        1 UNL1     0.0671
     33 H         -1.866517   -1.199368   -1.411679 H        1 UNL1     0.0649
     34 H         -3.841299   -1.840602   0.061837 H        1 UNL1     0.0683
     35 H         -3.196371   -2.942866   2.155478 H        1 UNL1     0.1085
     36 H         -4.822105   -2.965027   3.437773 H        1 UNL1     0.0691
     37 H         -2.781418   0.690311   4.488629 H        1 UNL1     0.0691
     38 H         -3.335948   -1.006854   9.025671 H        1 UNL1     0.0385
     39 H         -4.898608   -0.597076   9.759645 H        1 UNL1     0.0385
     40 H         -3.671756   1.40097   8.825838 H        1 UNL1     0.0789
     41 H         -5.354608   1.938375   5.935055 H        1 UNL1     0.0623
     42 H         -7.490011   3.143727   5.712884 H        1 UNL1     0.0654
     43 H         -8.388788   2.334996   9.834478 H        1 UNL1     0.0654
     44 H         -6.305006   1.107814   10.074955 H        1 UNL1     0.0623
     45 H         -8.987562   4.443435   7.344843 H        1 UNL1     0.2921
     46 H         -5.390087   -3.912453   6.474281 H        1 UNL1     0.2922
     47 H         0.515375   0.36084   2.264906 H        1 UNL1     0.2126
     48 H         1.199551   -1.888733   -0.287126 H        1 UNL1     0.2101
     49 H         -2.020679   0.935725   -0.901952 H        1 UNL1     0.2100
     50 H         -2.677493   -3.334517   -1.156168 H        1 UNL1     0.2102
@<TRIPOS>BOND
     1     1     2    1
     2     1     6    1
     3     2     3    1
     4     3     4    1
     5     3    29    1
     6     3    33    1
     7     4     5    1
     8     5     6    1
     9     5     7    1
    10     5    35    1
    11     7     8    1
    12     8     9   ar
    13     8    13   ar
    14     9    10   ar
    15     9    36    1
    16    10    11   ar
    17    10    26    1
    18    11    12   ar
    19    11    14    1
    20    12    13   ar
    21    12    17    1
    22    13    37    1
    23    14    15    1
    24    14    25    2
    25    15    16    1
    26    15    38    1
    27    15    39    1
    28    16    17    1
    29    16    18    1
    30    16    40    1
    31    18    19   ar
    32    18    23   ar
    33    19    20   ar
    34    19    41    1
    35    20    21   ar
    36    20    42    1
    37    21    22   ar
    38    21    24    1
    39    22    23   ar
    40    22    43    1
    41    23    44    1
    42    24    45    1
    43    26    46    1
    44    27    47    1
    45    28    48    1
    46    29    49    1
    47    30    50    1
    48     1    31    1
    49     1    27    1
    50     2    32    1
    51     2    28    1
    52     4    34    1
    53     4    30    1
