@<TRIPOS>MOLECULE
*****
 50 53 0 0 0
SMALL
GASTEIGER

@<TRIPOS>ATOM
     1 C         -0.33389   -1.330505   1.699729 C.3        1 UNL1     0.1889
     2 C         -0.46142   -0.976291   0.193671 C.3        1 UNL1     0.1342
     3 C         -1.901037   -0.965416   -0.342845 C.3        1 UNL1     0.1174
     4 C         -2.787247   -2.026674   0.314028 C.3        1 UNL1     0.1456
     5 C         -2.63913   -2.05329   1.846254 C.3        1 UNL1     0.2326
     6 O         -1.274715   -2.269636   2.199006 O.3        1 UNL1     -0.3076
     7 O         -3.217305   -0.907759   2.498017 O.3        1 UNL1     -0.4605
     8 C         -3.729852   -1.1253   3.76431 C.ar        1 UNL1     0.1310
     9 C         -4.545555   -2.199867   4.134763 C.ar        1 UNL1     0.0226
     10 C         -5.001581   -2.34231   5.450686 C.ar        1 UNL1     0.1343
     11 C         -4.633044   -1.425657   6.434438 C.ar        1 UNL1     0.1007
     12 C         -3.852581   -0.326046   6.067672 C.ar        1 UNL1     0.1389
     13 C         -3.396356   -0.181613   4.743879 C.ar        1 UNL1     0.0229
     14 C         -5.017024   -1.573555   7.857407 C.2        1 UNL1     0.1740
     15 C         -4.351837   -0.625346   8.811332 C.3        1 UNL1     0.0520
     16 C         -4.282928   0.74743   8.156583 C.3        1 UNL1     0.1322
     17 O         -3.521224   0.692994   6.930242 O.3        1 UNL1     -0.4828
     18 C         -5.642876   1.437988   8.028535 C.ar        1 UNL1     -0.0067
     19 C         -6.018948   2.003198   6.792686 C.ar        1 UNL1     -0.0516
     20 C         -7.234867   2.68312   6.654091 C.ar        1 UNL1     -0.0198
     21 C         -8.078229   2.810756   7.743255 C.ar        1 UNL1     0.1169
     22 C         -7.750881   2.236116   8.964513 C.ar        1 UNL1     -0.0198
     23 C         -6.543465   1.540241   9.098525 C.ar        1 UNL1     -0.0516
     24 O         -9.236534   3.512303   7.580272 O.3        1 UNL1     -0.5068
     25 O         -5.765538   -2.456781   8.267436 O.2        1 UNL1     -0.2917
     26 O         -5.795062   -3.412101   5.746519 O.3        1 UNL1     -0.5058
     27 O         -0.232242   -0.192952   2.54141 O.3        1 UNL1     -0.3648
     28 O         0.272345   -1.952868   -0.568295 O.3        1 UNL1     -0.3841
     29 O         -2.460634   0.347284   -0.26668 O.3        1 UNL1     -0.3863
     30 O         -2.436531   -3.32643   -0.208775 O.3        1 UNL1     -0.3829
     31 H         0.627271   -1.842038   1.820481 H        1 UNL1     0.0937
     32 H         0.0   0.0   0.0 H        1 UNL1     0.0671
     33 H         -1.861192   -1.203851   -1.41489 H        1 UNL1     0.0649
     34 H         -3.837043   -1.849668   0.055188 H        1 UNL1     0.0683
     35 H         -3.193197   -2.950291   2.150025 H        1 UNL1     0.1085
     36 H         -4.821128   -2.976222   3.429459 H        1 UNL1     0.0691
     37 H         -2.790934   0.683984   4.483689 H        1 UNL1     0.0691
     38 H         -3.349435   -1.014238   9.019848 H        1 UNL1     0.0385
     39 H         -4.914347   -0.608112   9.751047 H        1 UNL1     0.0385
     40 H         -3.690578   1.392775   8.819282 H        1 UNL1     0.0789
     41 H         -5.370302   1.924594   5.925085 H        1 UNL1     0.0623
     42 H         -7.508154   3.124869   5.699009 H        1 UNL1     0.0654
     43 H         -8.410894   2.317109   9.819927 H        1 UNL1     0.0654
     44 H         -6.324638   1.094899   10.064253 H        1 UNL1     0.0623
     45 H         -9.011131   4.420837   7.322441 H        1 UNL1     0.2921
     46 H         -5.392212   -3.924821   6.465019 H        1 UNL1     0.2922
     47 H         0.510536   0.362181   2.265788 H        1 UNL1     0.2126
     48 H         1.204513   -1.885909   -0.284904 H        1 UNL1     0.2101
     49 H         -2.021176   0.930942   -0.905439 H        1 UNL1     0.2100
     50 H         -2.66757   -3.340897   -1.16068 H        1 UNL1     0.2102
@<TRIPOS>BOND
     1     1     2    1
     2     1     6    1
     3     2     3    1
     4     3     4    1
     5     3    29    1
     6     3    33    1
     7     4     5    1
     8     5     6    1
     9     5     7    1
    10     5    35    1
    11     7     8    1
    12     8     9   ar
    13     8    13   ar
    14     9    10   ar
    15     9    36    1
    16    10    11   ar
    17    10    26    1
    18    11    12   ar
    19    11    14    1
    20    12    13   ar
    21    12    17    1
    22    13    37    1
    23    14    15    1
    24    14    25    2
    25    15    16    1
    26    15    38    1
    27    15    39    1
    28    16    17    1
    29    16    18    1
    30    16    40    1
    31    18    19   ar
    32    18    23   ar
    33    19    20   ar
    34    19    41    1
    35    20    21   ar
    36    20    42    1
    37    21    22   ar
    38    21    24    1
    39    22    23   ar
    40    22    43    1
    41    23    44    1
    42    24    45    1
    43    26    46    1
    44    27    47    1
    45    28    48    1
    46    29    49    1
    47    30    50    1
    48     1    31    1
    49     1    27    1
    50     2    32    1
    51     2    28    1
    52     4    34    1
    53     4    30    1
