@<TRIPOS>MOLECULE
*****
 50 53 0 0 0
SMALL
GASTEIGER

@<TRIPOS>ATOM
     1 C         -1.402827   -1.63587   -0.356104 C.3        1 UNL1     0.1889
     2 C         -0.577288   -0.7228   0.589797 C.3        1 UNL1     0.1342
     3 C         0.374319   -1.472128   1.535004 C.3        1 UNL1     0.1174
     4 C         -0.189309   -2.816811   2.001125 C.3        1 UNL1     0.1456
     5 C         -0.778221   -3.643203   0.843272 C.3        1 UNL1     0.2326
     6 O         -1.791464   -2.893281   0.177069 O.3        1 UNL1     -0.3076
     7 O         0.219166   -4.167061   -0.052336 O.3        1 UNL1     -0.4605
     8 C         0.766726   -3.263485   -0.945228 C.ar        1 UNL1     0.1310
     9 C         0.187089   -2.048679   -1.326761 C.ar        1 UNL1     0.0226
     10 C         0.830032   -1.191329   -2.227581 C.ar        1 UNL1     0.1343
     11 C         2.080506   -1.517336   -2.750913 C.ar        1 UNL1     0.1007
     12 C         2.650602   -2.746559   -2.409177 C.ar        1 UNL1     0.1389
     13 C         2.002709   -3.609649   -1.505439 C.ar        1 UNL1     0.0229
     14 C         2.842328   -0.610726   -3.640767 C.2        1 UNL1     0.1740
     15 C         4.257081   -1.02028   -3.927627 C.3        1 UNL1     0.0520
     16 C         4.290108   -2.528719   -4.131287 C.3        1 UNL1     0.1322
     17 O         3.825693   -3.216131   -2.948555 O.3        1 UNL1     -0.4828
     18 C         3.629887   -2.98932   -5.433085 C.ar        1 UNL1     -0.0067
     19 C         2.704609   -2.142758   -6.077607 C.ar        1 UNL1     -0.0516
     20 C         2.047393   -2.552551   -7.24384 C.ar        1 UNL1     -0.0198
     21 C         2.300699   -3.806582   -7.770213 C.ar        1 UNL1     0.1169
     22 C         3.231401   -4.649642   -7.177015 C.ar        1 UNL1     -0.0198
     23 C         3.902436   -4.232821   -6.021148 C.ar        1 UNL1     -0.0516
     24 O         1.613678   -4.185934   -8.885782 O.3        1 UNL1     -0.5068
     25 O         2.396878   0.452651   -4.064192 O.2        1 UNL1     -0.2917
     26 O         0.210656   -0.021829   -2.559589 O.3        1 UNL1     -0.5058
     27 O         -0.836801   -1.76812   -1.650288 O.3        1 UNL1     -0.3648
     28 O         -1.490927   0.029411   1.409644 O.3        1 UNL1     -0.3841
     29 O         1.675963   -1.588157   0.956739 O.3        1 UNL1     -0.3863
     30 O         -1.226376   -2.582589   2.978531 O.3        1 UNL1     -0.3829
     31 H         -2.356515   -1.125575   -0.529756 H        1 UNL1     0.0937
     32 H         0.0   0.0   0.0 H        1 UNL1     0.0671
     33 H         0.508534   -0.854885   2.434291 H        1 UNL1     0.0649
     34 H         0.594524   -3.398635   2.498606 H        1 UNL1     0.0683
     35 H         -1.278978   -4.481122   1.344283 H        1 UNL1     0.1085
     36 H         -0.756991   -1.712315   -0.912401 H        1 UNL1     0.0691
     37 H         2.467029   -4.561441   -1.256457 H        1 UNL1     0.0691
     38 H         4.868258   -0.724282   -3.06834 H        1 UNL1     0.0385
     39 H         4.617063   -0.475739   -4.807211 H        1 UNL1     0.0385
     40 H         5.3453   -2.820129   -4.221672 H        1 UNL1     0.0789
     41 H         2.481599   -1.157262   -5.679216 H        1 UNL1     0.0623
     42 H         1.327208   -1.895337   -7.724896 H        1 UNL1     0.0654
     43 H         3.448492   -5.627785   -7.589347 H        1 UNL1     0.0654
     44 H         4.630842   -4.912881   -5.590118 H        1 UNL1     0.0623
     45 H         1.86418   -3.596449   -9.61549 H        1 UNL1     0.2921
     46 H         0.346118   0.62819   -1.852103 H        1 UNL1     0.2922
     47 H         -1.232858   -1.126284   -2.256129 H        1 UNL1     0.2126
     48 H         -1.079048   0.103246   2.292048 H        1 UNL1     0.2101
     49 H         2.104065   -2.401553   1.268043 H        1 UNL1     0.2100
     50 H         -1.470825   -3.446001   3.371565 H        1 UNL1     0.2102
@<TRIPOS>BOND
     1     1     2    1
     2     1     6    1
     3     2     3    1
     4     3     4    1
     5     3    29    1
     6     3    33    1
     7     4     5    1
     8     5     6    1
     9     5     7    1
    10     5    35    1
    11     7     8    1
    12     8     9   ar
    13     8    13   ar
    14     9    10   ar
    15     9    36    1
    16    10    11   ar
    17    10    26    1
    18    11    12   ar
    19    11    14    1
    20    12    13   ar
    21    12    17    1
    22    13    37    1
    23    14    15    1
    24    14    25    2
    25    15    16    1
    26    15    38    1
    27    15    39    1
    28    16    17    1
    29    16    18    1
    30    16    40    1
    31    18    19   ar
    32    18    23   ar
    33    19    20   ar
    34    19    41    1
    35    20    21   ar
    36    20    42    1
    37    21    22   ar
    38    21    24    1
    39    22    23   ar
    40    22    43    1
    41    23    44    1
    42    24    45    1
    43    26    46    1
    44    27    47    1
    45    28    48    1
    46    29    49    1
    47    30    50    1
    48     1    31    1
    49     1    27    1
    50     2    32    1
    51     2    28    1
    52     4    34    1
    53     4    30    1
