@<TRIPOS>MOLECULE
*****
 50 53 0 0 0
SMALL
GASTEIGER

@<TRIPOS>ATOM
     1 C         -0.335899   -1.331183   1.698802 C.3        1 UNL1     0.1889
     2 C         -0.463602   -0.975363   0.193138 C.3        1 UNL1     0.1342
     3 C         -1.90355   -0.960612   -0.342397 C.3        1 UNL1     0.1174
     4 C         -2.79183   -2.020336   0.314156 C.3        1 UNL1     0.1456
     5 C         -2.642746   -2.04863   1.846258 C.3        1 UNL1     0.2326
     6 O         -1.27861   -2.268515   2.197902 O.3        1 UNL1     -0.3076
     7 O         -3.217766   -0.902299   2.499402 O.3        1 UNL1     -0.4605
     8 C         -3.729975   -1.119722   3.765852 C.ar        1 UNL1     0.1310
     9 C         -4.547972   -2.192674   4.135925 C.ar        1 UNL1     0.0226
     10 C         -5.003449   -2.335176   5.452032 C.ar        1 UNL1     0.1343
     11 C         -4.632078   -1.420253   6.436328 C.ar        1 UNL1     0.1007
     12 C         -3.849259   -0.322177   6.069987 C.ar        1 UNL1     0.1389
     13 C         -3.393584   -0.177677   4.746011 C.ar        1 UNL1     0.0229
     14 C         -5.01545   -1.568474   7.859427 C.2        1 UNL1     0.1740
     15 C         -4.347376   -0.622671   8.813724 C.3        1 UNL1     0.0520
     16 C         -4.275655   0.750504   8.160116 C.3        1 UNL1     0.1322
     17 O         -3.514906   0.695327   6.933215 O.3        1 UNL1     -0.4828
     18 C         -5.634048   1.444393   8.033583 C.ar        1 UNL1     -0.0067
     19 C         -6.009217   2.012381   6.798734 C.ar        1 UNL1     -0.0516
     20 C         -7.22361   2.695318   6.661591 C.ar        1 UNL1     -0.0198
     21 C         -8.066321   2.823213   7.751228 C.ar        1 UNL1     0.1169
     22 C         -7.739902   2.245931   8.971488 C.ar        1 UNL1     -0.0198
     23 C         -6.53405   1.547067   9.104026 C.ar        1 UNL1     -0.0516
     24 O         -9.223058   3.52768   7.589712 O.3        1 UNL1     -0.5068
     25 O         -5.765779   -2.450279   8.269197 O.2        1 UNL1     -0.2917
     26 O         -5.799264   -3.403341   5.747475 O.3        1 UNL1     -0.5058
     27 O         -0.230989   -0.194604   2.541398 O.3        1 UNL1     -0.3648
     28 O         0.267333   -1.953015   -0.570169 O.3        1 UNL1     -0.3841
     29 O         -2.459983   0.353345   -0.264718 O.3        1 UNL1     -0.3863
     30 O         -2.444548   -3.320465   -0.210008 O.3        1 UNL1     -0.3829
     31 H         0.624129   -1.845097   1.818462 H        1 UNL1     0.0937
     32 H         0.0   0.0   0.0 H        1 UNL1     0.0671
     33 H         -1.864992   -1.198211   -1.414674 H        1 UNL1     0.0649
     34 H         -3.841378   -1.840618   0.056178 H        1 UNL1     0.0683
     35 H         -3.198733   -2.944579   2.149627 H        1 UNL1     0.1085
     36 H         -4.825859   -2.967762   3.430136 H        1 UNL1     0.0691
     37 H         -2.786287   0.686708   4.486162 H        1 UNL1     0.0691
     38 H         -3.345758   -1.014118   9.021226 H        1 UNL1     0.0385
     39 H         -4.909211   -0.604919   9.753833 H        1 UNL1     0.0385
     40 H         -3.68133   1.39387   8.822973 H        1 UNL1     0.0789
     41 H         -5.361037   1.933625   5.9308 H        1 UNL1     0.0623
     42 H         -7.496188   3.139174   5.707283 H        1 UNL1     0.0654
     43 H         -8.399448   2.327121   9.827244 H        1 UNL1     0.0654
     44 H         -6.315937   1.099727   10.068992 H        1 UNL1     0.0623
     45 H         -8.995645   4.43609   7.333212 H        1 UNL1     0.2921
     46 H         -5.397146   -3.917637   6.465259 H        1 UNL1     0.2922
     47 H         0.512918   0.359006   2.265756 H        1 UNL1     0.2126
     48 H         1.199848   -1.88851   -0.287349 H        1 UNL1     0.2101
     49 H         -2.019691   0.93647   -0.90339 H        1 UNL1     0.2100
     50 H         -2.676261   -3.333559   -1.16177 H        1 UNL1     0.2102
@<TRIPOS>BOND
     1     1     2    1
     2     1     6    1
     3     2     3    1
     4     3     4    1
     5     3    29    1
     6     3    33    1
     7     4     5    1
     8     5     6    1
     9     5     7    1
    10     5    35    1
    11     7     8    1
    12     8     9   ar
    13     8    13   ar
    14     9    10   ar
    15     9    36    1
    16    10    11   ar
    17    10    26    1
    18    11    12   ar
    19    11    14    1
    20    12    13   ar
    21    12    17    1
    22    13    37    1
    23    14    15    1
    24    14    25    2
    25    15    16    1
    26    15    38    1
    27    15    39    1
    28    16    17    1
    29    16    18    1
    30    16    40    1
    31    18    19   ar
    32    18    23   ar
    33    19    20   ar
    34    19    41    1
    35    20    21   ar
    36    20    42    1
    37    21    22   ar
    38    21    24    1
    39    22    23   ar
    40    22    43    1
    41    23    44    1
    42    24    45    1
    43    26    46    1
    44    27    47    1
    45    28    48    1
    46    29    49    1
    47    30    50    1
    48     1    31    1
    49     1    27    1
    50     2    32    1
    51     2    28    1
    52     4    34    1
    53     4    30    1
