@<TRIPOS>MOLECULE
*****
 50 53 0 0 0
SMALL
GASTEIGER

@<TRIPOS>ATOM
     1 C         -0.388317   -1.353057   1.670105 C.3        1 UNL1     0.1889
     2 C         -0.491819   -0.965739   0.170368 C.3        1 UNL1     0.1342
     3 C         -1.925622   -0.901509   -0.377856 C.3        1 UNL1     0.1174
     4 C         -2.848689   -1.948603   0.250363 C.3        1 UNL1     0.1456
     5 C         -2.715152   -2.009657   1.782944 C.3        1 UNL1     0.2326
     6 O         -1.360948   -2.273386   2.142734 O.3        1 UNL1     -0.3076
     7 O         -3.264994   -0.860431   2.452476 O.3        1 UNL1     -0.4605
     8 C         -3.795072   -1.087415   3.709863 C.ar        1 UNL1     0.1310
     9 C         -4.645496   -2.144291   4.052054 C.ar        1 UNL1     0.0226
     10 C         -5.117302   -2.298879   5.361024 C.ar        1 UNL1     0.1343
     11 C         -4.730629   -1.413067   6.365844 C.ar        1 UNL1     0.1007
     12 C         -3.914722   -0.330187   6.027542 C.ar        1 UNL1     0.1389
     13 C         -3.442587   -0.173461   4.710744 C.ar        1 UNL1     0.0229
     14 C         -5.131545   -1.577351   7.78233 C.2        1 UNL1     0.1740
     15 C         -4.447164   -0.668245   8.76044 C.3        1 UNL1     0.0520
     16 C         -4.331809   0.714448   8.133694 C.3        1 UNL1     0.1322
     17 O         -3.561097   0.661429   6.912931 O.3        1 UNL1     -0.4828
     18 C         -5.669528   1.447547   8.008013 C.ar        1 UNL1     -0.0067
     19 C         -6.017631   2.047825   6.780535 C.ar        1 UNL1     -0.0516
     20 C         -7.211612   2.766216   6.645305 C.ar        1 UNL1     -0.0198
     21 C         -8.060547   2.897508   7.729693 C.ar        1 UNL1     0.1169
     22 C         -7.761294   2.289542   8.94199 C.ar        1 UNL1     -0.0198
     23 C         -6.576243   1.555551   9.072249 C.ar        1 UNL1     -0.0516
     24 O         -9.196083   3.636274   7.570992 O.3        1 UNL1     -0.5068
     25 O         -5.909504   -2.445782   8.168452 O.2        1 UNL1     -0.2917
     26 O         -5.944705   -3.35018   5.628894 O.3        1 UNL1     -0.5058
     27 O         -0.260598   -0.235758   2.535042 O.3        1 UNL1     -0.3648
     28 O         0.219525   -1.948587   -0.604683 O.3        1 UNL1     -0.3841
     29 O         -2.446795   0.425516   -0.280311 O.3        1 UNL1     -0.3863
     30 O         -2.531915   -3.247717   -0.295206 O.3        1 UNL1     -0.3829
     31 H         0.55617   -1.895235   1.78871 H        1 UNL1     0.0937
     32 H         0.0   0.0   0.0 H        1 UNL1     0.0671
     33 H         -1.88325   -1.119955   -1.454055 H        1 UNL1     0.0649
     34 H         -3.890428   -1.735394   -0.013686 H        1 UNL1     0.0683
     35 H         -3.298214   -2.895558   2.064186 H        1 UNL1     0.1085
     36 H         -4.93759   -2.89812   3.329183 H        1 UNL1     0.0691
     37 H         -2.809514   0.678673   4.472879 H        1 UNL1     0.0691
     38 H         -3.458613   -1.090808   8.969569 H        1 UNL1     0.0385
     39 H         -5.01731   -0.652712   9.695571 H        1 UNL1     0.0385
     40 H         -3.726582   1.32876   8.814018 H        1 UNL1     0.0789
     41 H         -5.363852   1.966984   5.917002 H        1 UNL1     0.0623
     42 H         -7.463146   3.234547   5.696933 H        1 UNL1     0.0654
     43 H         -8.426255   2.373349   9.79329 H        1 UNL1     0.0654
     44 H         -6.379346   1.085042   10.030736 H        1 UNL1     0.0623
     45 H         -8.941066   4.552856   7.377186 H        1 UNL1     0.2921
     46 H         -5.56365   -3.888653   6.340411 H        1 UNL1     0.2922
     47 H         0.500718   0.302324   2.27673 H        1 UNL1     0.2126
     48 H         1.150691   -1.914967   -0.312226 H        1 UNL1     0.2101
     49 H         -1.984559   1.008253   -0.903648 H        1 UNL1     0.2100
     50 H         -2.754747   -3.236632   -1.249112 H        1 UNL1     0.2102
@<TRIPOS>BOND
     1     1     2    1
     2     1     6    1
     3     2     3    1
     4     3     4    1
     5     3    29    1
     6     3    33    1
     7     4     5    1
     8     5     6    1
     9     5     7    1
    10     5    35    1
    11     7     8    1
    12     8     9   ar
    13     8    13   ar
    14     9    10   ar
    15     9    36    1
    16    10    11   ar
    17    10    26    1
    18    11    12   ar
    19    11    14    1
    20    12    13   ar
    21    12    17    1
    22    13    37    1
    23    14    15    1
    24    14    25    2
    25    15    16    1
    26    15    38    1
    27    15    39    1
    28    16    17    1
    29    16    18    1
    30    16    40    1
    31    18    19   ar
    32    18    23   ar
    33    19    20   ar
    34    19    41    1
    35    20    21   ar
    36    20    42    1
    37    21    22   ar
    38    21    24    1
    39    22    23   ar
    40    22    43    1
    41    23    44    1
    42    24    45    1
    43    26    46    1
    44    27    47    1
    45    28    48    1
    46    29    49    1
    47    30    50    1
    48     1    31    1
    49     1    27    1
    50     2    32    1
    51     2    28    1
    52     4    34    1
    53     4    30    1
