@<TRIPOS>MOLECULE
*****
 50 53 0 0 0
SMALL
GASTEIGER

@<TRIPOS>ATOM
     1 C         -0.396085   -1.376453   1.649029 C.3        1 UNL1     0.1889
     2 C         -0.493547   -0.967502   0.15464 C.3        1 UNL1     0.1342
     3 C         -1.925219   -0.893698   -0.39793 C.3        1 UNL1     0.1174
     4 C         -2.851813   -1.948614   0.211738 C.3        1 UNL1     0.1456
     5 C         -2.724068   -2.031842   1.743769 C.3        1 UNL1     0.2326
     6 O         -1.371518   -2.302322   2.104763 O.3        1 UNL1     -0.3076
     7 O         -3.275103   -0.891703   2.427701 O.3        1 UNL1     -0.4605
     8 C         -3.193935   0.315249   1.756727 C.ar        1 UNL1     0.1310
     9 C         -3.914781   1.470651   2.077239 C.ar        1 UNL1     0.0226
     10 C         -3.749875   2.652818   1.345673 C.ar        1 UNL1     0.1343
     11 C         -2.841619   2.715108   0.289722 C.ar        1 UNL1     0.1007
     12 C         -2.14623   1.556294   -0.065761 C.ar        1 UNL1     0.1389
     13 C         -2.31417   0.367023   0.66831 C.ar        1 UNL1     0.0229
     14 C         -2.56624   3.960661   -0.463217 C.2        1 UNL1     0.1740
     15 C         -1.405185   3.902587   -1.411968 C.3        1 UNL1     0.0520
     16 C         -1.422364   2.550814   -2.112233 C.3        1 UNL1     0.1322
     17 O         -1.308887   1.475511   -1.154153 O.3        1 UNL1     -0.4828
     18 C         -2.568889   2.390046   -3.113411 C.ar        1 UNL1     -0.0067
     19 C         -2.537804   1.324784   -4.0367 C.ar        1 UNL1     -0.0516
     20 C         -3.546112   1.176469   -4.996534 C.ar        1 UNL1     -0.0198
     21 C         -4.584663   2.08893   -5.048044 C.ar        1 UNL1     0.1169
     22 C         -4.660572   3.129125   -4.130945 C.ar        1 UNL1     -0.0198
     23 C         -3.662159   3.267005   -3.159237 C.ar        1 UNL1     -0.0516
     24 O         -5.52834   1.934122   -6.020623 O.3        1 UNL1     -0.5068
     25 O         -3.180239   5.00909   -0.283534 O.2        1 UNL1     -0.2917
     26 O         -4.483792   3.744195   1.708782 O.3        1 UNL1     -0.5058
     27 O         -0.270329   -0.27185   2.530406 O.3        1 UNL1     -0.3648
     28 O         0.21957   -1.939957   -0.631809 O.3        1 UNL1     -0.3841
     29 O         -2.445247   0.432406   -0.283259 O.3        1 UNL1     -0.3863
     30 O         -2.534478   -3.24013   -0.351267 O.3        1 UNL1     -0.3829
     31 H         0.547337   -1.921401   1.763339 H        1 UNL1     0.0937
     32 H         0.0   0.0   0.0 H        1 UNL1     0.0671
     33 H         -1.879077   -1.096708   -1.476993 H        1 UNL1     0.0649
     34 H         -3.892316   -1.730395   -0.053089 H        1 UNL1     0.0683
     35 H         -3.309181   -2.921   2.010079 H        1 UNL1     0.1085
     36 H         -4.59462   1.502734   2.921579 H        1 UNL1     0.0691
     37 H         -1.761885   -0.521713   0.370613 H        1 UNL1     0.0691
     38 H         -0.490211   4.031153   -0.823903 H        1 UNL1     0.0385
     39 H         -1.477338   4.73609   -2.118965 H        1 UNL1     0.0385
     40 H         -0.503191   2.484161   -2.709894 H        1 UNL1     0.0789
     41 H         -1.728537   0.600529   -4.022817 H        1 UNL1     0.0623
     42 H         -3.50463   0.357716   -5.710631 H        1 UNL1     0.0654
     43 H         -5.47742   3.840599   -4.152744 H        1 UNL1     0.0654
     44 H         -3.758823   4.085105   -2.45198 H        1 UNL1     0.0623
     45 H         -5.153189   1.383847   -6.727147 H        1 UNL1     0.2921
     46 H         -4.21468   4.507603   1.173806 H        1 UNL1     0.2922
     47 H         0.601688   0.135779   2.434055 H        1 UNL1     0.2126
     48 H         0.06596   -1.709338   -1.568266 H        1 UNL1     0.2101
     49 H         -3.136828   0.458002   0.397076 H        1 UNL1     0.2100
     50 H         -2.32115   -3.111827   -1.298759 H        1 UNL1     0.2102
@<TRIPOS>BOND
     1     1     2    1
     2     1     6    1
     3     2     3    1
     4     3     4    1
     5     3    29    1
     6     3    33    1
     7     4     5    1
     8     5     6    1
     9     5     7    1
    10     5    35    1
    11     7     8    1
    12     8     9   ar
    13     8    13   ar
    14     9    10   ar
    15     9    36    1
    16    10    11   ar
    17    10    26    1
    18    11    12   ar
    19    11    14    1
    20    12    13   ar
    21    12    17    1
    22    13    37    1
    23    14    15    1
    24    14    25    2
    25    15    16    1
    26    15    38    1
    27    15    39    1
    28    16    17    1
    29    16    18    1
    30    16    40    1
    31    18    19   ar
    32    18    23   ar
    33    19    20   ar
    34    19    41    1
    35    20    21   ar
    36    20    42    1
    37    21    22   ar
    38    21    24    1
    39    22    23   ar
    40    22    43    1
    41    23    44    1
    42    24    45    1
    43    26    46    1
    44    27    47    1
    45    28    48    1
    46    29    49    1
    47    30    50    1
    48     1    31    1
    49     1    27    1
    50     2    32    1
    51     2    28    1
    52     4    34    1
    53     4    30    1
