@<TRIPOS>MOLECULE
*****
 50 53 0 0 0
SMALL
GASTEIGER

@<TRIPOS>ATOM
     1 C         0.169576   -1.771844   -1.265946 C.3        1 UNL1     0.1889
     2 C         -0.590621   -0.512716   -0.769318 C.3        1 UNL1     0.1342
     3 C         -1.998252   -0.78898   -0.219119 C.3        1 UNL1     0.1174
     4 C         -2.712521   -1.923021   -0.958638 C.3        1 UNL1     0.1456
     5 C         -1.81276   -3.156307   -1.15814 C.3        1 UNL1     0.2326
     6 O         -0.628233   -2.78542   -1.859714 O.3        1 UNL1     -0.3076
     7 O         -1.547257   -3.875249   0.060035 O.3        1 UNL1     -0.4605
     8 C         -0.459275   -4.729183   0.035141 C.ar        1 UNL1     0.1310
     9 C         0.64079   -4.665428   0.897168 C.ar        1 UNL1     0.0226
     10 C         1.688382   -5.589349   0.803224 C.ar        1 UNL1     0.1343
     11 C         1.649918   -6.614924   -0.14047 C.ar        1 UNL1     0.1007
     12 C         0.576354   -6.664242   -1.033673 C.ar        1 UNL1     0.1389
     13 C         -0.475588   -5.733538   -0.940731 C.ar        1 UNL1     0.0229
     14 C         2.688373   -7.667537   -0.228608 C.2        1 UNL1     0.1740
     15 C         2.376052   -8.812447   -1.146859 C.3        1 UNL1     0.0520
     16 C         1.713729   -8.257753   -2.400494 C.3        1 UNL1     0.1322
     17 O         0.490013   -7.564646   -2.070053 O.3        1 UNL1     -0.4828
     18 C         2.665775   -7.468926   -3.30276 C.ar        1 UNL1     -0.0067
     19 C         2.139124   -6.523917   -4.207088 C.ar        1 UNL1     -0.0516
     20 C         2.977551   -5.819767   -5.079542 C.ar        1 UNL1     -0.0198
     21 C         4.340471   -6.056386   -5.062575 C.ar        1 UNL1     0.1169
     22 C         4.892566   -6.956407   -4.16036 C.ar        1 UNL1     -0.0198
     23 C         4.056404   -7.647196   -3.275092 C.ar        1 UNL1     -0.0516
     24 O         5.12127   -5.379504   -5.952846 O.3        1 UNL1     -0.5068
     25 O         3.709526   -7.668705   0.453836 O.2        1 UNL1     -0.2917
     26 O         2.732845   -5.471461   1.673158 O.3        1 UNL1     -0.5058
     27 O         1.066053   -2.30659   -0.305133 O.3        1 UNL1     -0.3648
     28 O         -0.733897   0.398967   -1.874313 O.3        1 UNL1     -0.3841
     29 O         -1.959605   -0.988688   1.195362 O.3        1 UNL1     -0.3863
     30 O         -3.142228   -1.447793   -2.252932 O.3        1 UNL1     -0.3829
     31 H         0.817594   -1.442963   -2.085695 H        1 UNL1     0.0937
     32 H         0.0   0.0   0.0 H        1 UNL1     0.0671
     33 H         -2.600943   0.117603   -0.369421 H        1 UNL1     0.0649
     34 H         -3.613875   -2.217888   -0.40999 H        1 UNL1     0.0683
     35 H         -2.392866   -3.801031   -1.830217 H        1 UNL1     0.1085
     36 H         0.703285   -3.926155   1.688174 H        1 UNL1     0.0691
     37 H         -1.299429   -5.792806   -1.648733 H        1 UNL1     0.0691
     38 H         1.703385   -9.491679   -0.612359 H        1 UNL1     0.0385
     39 H         3.300895   -9.354283   -1.372376 H        1 UNL1     0.0385
     40 H         1.388548   -9.117291   -3.002135 H        1 UNL1     0.0789
     41 H         1.071771   -6.326751   -4.246247 H        1 UNL1     0.0623
     42 H         2.558068   -5.102312   -5.780473 H        1 UNL1     0.0654
     43 H         5.96018   -7.138288   -4.128256 H        1 UNL1     0.0654
     44 H         4.522921   -8.335078   -2.576504 H        1 UNL1     0.0623
     45 H         5.192405   -5.909471   -6.763273 H        1 UNL1     0.2921
     46 H         2.895638   -4.532968   1.857927 H        1 UNL1     0.2922
     47 H         0.871011   -3.241155   -0.148906 H        1 UNL1     0.2126
     48 H         -0.708352   1.300033   -1.4986 H        1 UNL1     0.2101
     49 H         -2.859208   -0.956236   1.55793 H        1 UNL1     0.2100
     50 H         -3.391508   -0.50492   -2.1604 H        1 UNL1     0.2102
@<TRIPOS>BOND
     1     1     2    1
     2     1     6    1
     3     2     3    1
     4     3     4    1
     5     3    29    1
     6     3    33    1
     7     4     5    1
     8     5     6    1
     9     5     7    1
    10     5    35    1
    11     7     8    1
    12     8     9   ar
    13     8    13   ar
    14     9    10   ar
    15     9    36    1
    16    10    11   ar
    17    10    26    1
    18    11    12   ar
    19    11    14    1
    20    12    13   ar
    21    12    17    1
    22    13    37    1
    23    14    15    1
    24    14    25    2
    25    15    16    1
    26    15    38    1
    27    15    39    1
    28    16    17    1
    29    16    18    1
    30    16    40    1
    31    18    19   ar
    32    18    23   ar
    33    19    20   ar
    34    19    41    1
    35    20    21   ar
    36    20    42    1
    37    21    22   ar
    38    21    24    1
    39    22    23   ar
    40    22    43    1
    41    23    44    1
    42    24    45    1
    43    26    46    1
    44    27    47    1
    45    28    48    1
    46    29    49    1
    47    30    50    1
    48     1    31    1
    49     1    27    1
    50     2    32    1
    51     2    28    1
    52     4    34    1
    53     4    30    1
