@<TRIPOS>MOLECULE
*****
 50 53 0 0 0
SMALL
GASTEIGER

@<TRIPOS>ATOM
     1 C         -0.449608   -1.871979   1.031675 C.3        1 UNL1     0.1889
     2 C         -0.791961   -0.409537   0.639248 C.3        1 UNL1     0.1342
     3 C         -1.016394   0.53759   1.827964 C.3        1 UNL1     0.1174
     4 C         -1.681135   -0.15419   3.020724 C.3        1 UNL1     0.1456
     5 C         -1.032932   -1.510651   3.352707 C.3        1 UNL1     0.2326
     6 O         -1.073701   -2.361628   2.209447 O.3        1 UNL1     -0.3076
     7 O         0.282887   -1.392729   3.923704 O.3        1 UNL1     -0.4605
     8 C         1.142968   -2.45021   3.688072 C.ar        1 UNL1     0.1310
     9 C         2.305629   -2.726679   4.415454 C.ar        1 UNL1     0.0226
     10 C         3.104229   -3.835119   4.109673 C.ar        1 UNL1     0.1343
     11 C         2.746371   -4.708298   3.083351 C.ar        1 UNL1     0.1007
     12 C         1.60971   -4.419765   2.323394 C.ar        1 UNL1     0.1389
     13 C         0.808325   -3.303699   2.629351 C.ar        1 UNL1     0.0229
     14 C         3.507648   -5.940252   2.772065 C.2        1 UNL1     0.1740
     15 C         2.859751   -6.873642   1.791983 C.3        1 UNL1     0.0520
     16 C         2.223895   -6.044264   0.684834 C.3        1 UNL1     0.1322
     17 O         1.224872   -5.150262   1.223148 O.3        1 UNL1     -0.4828
     18 C         3.239455   -5.374986   -0.244375 C.ar        1 UNL1     -0.0067
     19 C         3.44448   -3.982597   -0.158158 C.ar        1 UNL1     -0.0516
     20 C         4.330752   -3.332008   -1.024886 C.ar        1 UNL1     -0.0198
     21 C         5.010927   -4.059841   -1.984808 C.ar        1 UNL1     0.1169
     22 C         4.855362   -5.437144   -2.072416 C.ar        1 UNL1     -0.0198
     23 C         3.983086   -6.090647   -1.19371 C.ar        1 UNL1     -0.0516
     24 O         5.837005   -3.386486   -2.836035 O.3        1 UNL1     -0.5068
     25 O         4.562153   -6.241309   3.32512 O.2        1 UNL1     -0.2917
     26 O         4.225928   -4.048167   4.856658 O.3        1 UNL1     -0.5058
     27 O         0.941808   -2.148863   1.022408 O.3        1 UNL1     -0.3648
     28 O         -2.004434   -0.417497   -0.136994 O.3        1 UNL1     -0.3841
     29 O         0.197096   1.204679   2.180905 O.3        1 UNL1     -0.3863
     30 O         -3.078777   -0.367436   2.726084 O.3        1 UNL1     -0.3829
     31 H         -0.857091   -2.511568   0.24113 H        1 UNL1     0.0937
     32 H         0.0   0.0   0.0 H        1 UNL1     0.0671
     33 H         -1.701032   1.331903   1.499244 H        1 UNL1     0.0649
     34 H         -1.634773   0.494284   3.902616 H        1 UNL1     0.0683
     35 H         -1.705261   -1.949076   4.100795 H        1 UNL1     0.1085
     36 H         2.607786   -2.117944   5.260594 H        1 UNL1     0.0691
     37 H         -0.070902   -3.100351   2.021812 H        1 UNL1     0.0691
     38 H         2.104978   -7.452368   2.335049 H        1 UNL1     0.0385
     39 H         3.613012   -7.569656   1.407353 H        1 UNL1     0.0385
     40 H         1.657842   -6.736115   0.04652 H        1 UNL1     0.0789
     41 H         2.915692   -3.387526   0.580709 H        1 UNL1     0.0623
     42 H         4.471273   -2.256111   -0.956253 H        1 UNL1     0.0654
     43 H         5.394454   -6.018922   -2.810538 H        1 UNL1     0.0654
     44 H         3.893909   -7.168988   -1.283558 H        1 UNL1     0.0623
     45 H         5.717935   -3.748227   -3.729166 H        1 UNL1     0.2921
     46 H         4.072091   -4.785498   5.468287 H        1 UNL1     0.2922
     47 H         1.108476   -3.038308   1.364417 H        1 UNL1     0.2126
     48 H         -2.533247   0.34699   0.162422 H        1 UNL1     0.2101
     49 H         0.293457   1.225549   3.146344 H        1 UNL1     0.2100
     50 H         -3.14335   -1.11358   2.094567 H        1 UNL1     0.2102
@<TRIPOS>BOND
     1     1     2    1
     2     1     6    1
     3     2     3    1
     4     3     4    1
     5     3    29    1
     6     3    33    1
     7     4     5    1
     8     5     6    1
     9     5     7    1
    10     5    35    1
    11     7     8    1
    12     8     9   ar
    13     8    13   ar
    14     9    10   ar
    15     9    36    1
    16    10    11   ar
    17    10    26    1
    18    11    12   ar
    19    11    14    1
    20    12    13   ar
    21    12    17    1
    22    13    37    1
    23    14    15    1
    24    14    25    2
    25    15    16    1
    26    15    38    1
    27    15    39    1
    28    16    17    1
    29    16    18    1
    30    16    40    1
    31    18    19   ar
    32    18    23   ar
    33    19    20   ar
    34    19    41    1
    35    20    21   ar
    36    20    42    1
    37    21    22   ar
    38    21    24    1
    39    22    23   ar
    40    22    43    1
    41    23    44    1
    42    24    45    1
    43    26    46    1
    44    27    47    1
    45    28    48    1
    46    29    49    1
    47    30    50    1
    48     1    31    1
    49     1    27    1
    50     2    32    1
    51     2    28    1
    52     4    34    1
    53     4    30    1
