@<TRIPOS>MOLECULE
*****
 50 53 0 0 0
SMALL
GASTEIGER

@<TRIPOS>ATOM
     1 C         1.204278   0.450307   1.765713 C.3        1 UNL1     0.1889
     2 C         -0.15359   0.383678   1.01625 C.3        1 UNL1     0.1342
     3 C         -0.909488   1.719001   0.938818 C.3        1 UNL1     0.1174
     4 C         -0.719602   2.581837   2.188849 C.3        1 UNL1     0.1456
     5 C         0.753023   2.665516   2.630141 C.3        1 UNL1     0.2326
     6 O         1.267341   1.355402   2.858059 O.3        1 UNL1     -0.3076
     7 O         1.573185   3.449226   1.744447 O.3        1 UNL1     -0.4605
     8 C         1.100608   4.713203   1.440206 C.ar        1 UNL1     0.1310
     9 C         0.297165   5.035083   0.341037 C.ar        1 UNL1     0.0226
     10 C         -0.145993   6.345794   0.127614 C.ar        1 UNL1     0.1343
     11 C         0.184213   7.362925   1.022182 C.ar        1 UNL1     0.1007
     12 C         1.01984   7.061853   2.101008 C.ar        1 UNL1     0.1389
     13 C         1.467477   5.744387   2.313926 C.ar        1 UNL1     0.0229
     14 C         -0.325534   8.747531   0.891126 C.2        1 UNL1     0.1740
     15 C         -0.05469   9.652216   2.057205 C.3        1 UNL1     0.0520
     16 C         1.356472   9.380701   2.560056 C.3        1 UNL1     0.1322
     17 O         1.49498   8.00585   2.981565 O.3        1 UNL1     -0.4828
     18 C         2.453415   9.866354   1.609487 C.ar        1 UNL1     -0.0067
     19 C         3.629782   10.433222   2.141497 C.ar        1 UNL1     -0.0516
     20 C         4.631879   10.930419   1.299737 C.ar        1 UNL1     -0.0198
     21 C         4.466688   10.87341   -0.072592 C.ar        1 UNL1     0.1169
     22 C         3.334323   10.290726   -0.626729 C.ar        1 UNL1     -0.0198
     23 C         2.340355   9.776748   0.214646 C.ar        1 UNL1     -0.0516
     24 O         5.446865   11.401837   -0.86026 O.3        1 UNL1     -0.5068
     25 O         -0.997818   9.133156   -0.061666 O.2        1 UNL1     -0.2917
     26 O         -0.925999   6.593654   -0.964055 O.3        1 UNL1     -0.5058
     27 O         2.320448   0.593549   0.901749 O.3        1 UNL1     -0.3648
     28 O         -1.006808   -0.552509   1.700558 O.3        1 UNL1     -0.3841
     29 O         -0.588232   2.414292   -0.267622 O.3        1 UNL1     -0.3863
     30 O         -1.497491   2.025606   3.271062 O.3        1 UNL1     -0.3829
     31 H         1.350706   -0.528482   2.235403 H        1 UNL1     0.0937
     32 H         0.0   0.0   -0.0 H        1 UNL1     0.0671
     33 H         -1.98271   1.493231   0.86852 H        1 UNL1     0.0649
     34 H         -1.100614   3.592829   2.006848 H        1 UNL1     0.0683
     35 H         0.708743   3.165026   3.606055 H        1 UNL1     0.1085
     36 H         -0.040064   4.279117   -0.359615 H        1 UNL1     0.0691
     37 H         2.118056   5.536288   3.160646 H        1 UNL1     0.0691
     38 H         -0.798823   9.429181   2.829247 H        1 UNL1     0.0385
     39 H         -0.189199   10.692857   1.742959 H        1 UNL1     0.0385
     40 H         1.490082   9.964876   3.480603 H        1 UNL1     0.0789
     41 H         3.779289   10.497957   3.215326 H        1 UNL1     0.0623
     42 H         5.529103   11.375976   1.722204 H        1 UNL1     0.0654
     43 H         3.201597   10.227294   -1.700167 H        1 UNL1     0.0654
     44 H         1.47377   9.318958   -0.252585 H        1 UNL1     0.0623
     45 H         6.269972   10.914403   -0.694072 H        1 UNL1     0.2921
     46 H         -1.594525   7.26001   -0.739434 H        1 UNL1     0.2922
     47 H         2.031463   0.593078   -0.021477 H        1 UNL1     0.2126
     48 H         -1.50321   -1.034162   1.011117 H        1 UNL1     0.2101
     49 H         -0.249959   1.789396   -0.928583 H        1 UNL1     0.2100
     50 H         -1.917935   1.201913   2.947846 H        1 UNL1     0.2102
@<TRIPOS>BOND
     1     1     2    1
     2     1     6    1
     3     2     3    1
     4     3     4    1
     5     3    29    1
     6     3    33    1
     7     4     5    1
     8     5     6    1
     9     5     7    1
    10     5    35    1
    11     7     8    1
    12     8     9   ar
    13     8    13   ar
    14     9    10   ar
    15     9    36    1
    16    10    11   ar
    17    10    26    1
    18    11    12   ar
    19    11    14    1
    20    12    13   ar
    21    12    17    1
    22    13    37    1
    23    14    15    1
    24    14    25    2
    25    15    16    1
    26    15    38    1
    27    15    39    1
    28    16    17    1
    29    16    18    1
    30    16    40    1
    31    18    19   ar
    32    18    23   ar
    33    19    20   ar
    34    19    41    1
    35    20    21   ar
    36    20    42    1
    37    21    22   ar
    38    21    24    1
    39    22    23   ar
    40    22    43    1
    41    23    44    1
    42    24    45    1
    43    26    46    1
    44    27    47    1
    45    28    48    1
    46    29    49    1
    47    30    50    1
    48     1    31    1
    49     1    27    1
    50     2    32    1
    51     2    28    1
    52     4    34    1
    53     4    30    1
