@<TRIPOS>MOLECULE
*****
 50 53 0 0 0
SMALL
GASTEIGER

@<TRIPOS>ATOM
     1 C         -0.325057   -1.353024   1.683588 C.3        1 UNL1     0.1889
     2 C         -0.464245   -0.976841   0.183904 C.3        1 UNL1     0.1342
     3 C         -1.908484   -0.951789   -0.339556 C.3        1 UNL1     0.1174
     4 C         -2.793798   -2.018247   0.310063 C.3        1 UNL1     0.1456
     5 C         -2.632262   -2.067334   1.840377 C.3        1 UNL1     0.2326
     6 O         -1.265806   -2.294878   2.177854 O.3        1 UNL1     -0.3076
     7 O         -3.199292   -0.928578   2.513452 O.3        1 UNL1     -0.4605
     8 C         -3.708448   -1.163392   3.778027 C.ar        1 UNL1     0.1310
     9 C         -4.530683   -2.237918   4.13387 C.ar        1 UNL1     0.0226
     10 C         -4.982564   -2.398891   5.449086 C.ar        1 UNL1     0.1343
     11 C         -4.603314   -1.501511   6.446443 C.ar        1 UNL1     0.1007
     12 C         -3.816117   -0.401746   6.094846 C.ar        1 UNL1     0.1389
     13 C         -3.364054   -0.238652   4.771792 C.ar        1 UNL1     0.0229
     14 C         -4.98277   -1.670257   7.868305 C.2        1 UNL1     0.1740
     15 C         -4.306764   -0.743023   8.835157 C.3        1 UNL1     0.0520
     16 C         -4.230192   0.639925   8.203059 C.3        1 UNL1     0.1322
     17 O         -3.47376   0.600298   6.972892 O.3        1 UNL1     -0.4828
     18 C         -5.58544   1.342565   8.09205 C.ar        1 UNL1     -0.0067
     19 C         -5.955402   1.944818   6.871954 C.ar        1 UNL1     -0.0516
     20 C         -7.166672   2.636195   6.750368 C.ar        1 UNL1     -0.0198
     21 C         -8.011397   2.73849   7.84115 C.ar        1 UNL1     0.1169
     22 C         -7.690189   2.127537   9.046305 C.ar        1 UNL1     -0.0198
     23 C         -6.487514   1.420397   9.162844 C.ar        1 UNL1     -0.0516
     24 O         -9.164866   3.4518   7.695901 O.3        1 UNL1     -0.5068
     25 O         -5.736234   -2.55463   8.266629 O.2        1 UNL1     -0.2917
     26 O         -5.782836   -3.467564   5.730311 O.3        1 UNL1     -0.5058
     27 O         -0.210655   -0.228036   2.540385 O.3        1 UNL1     -0.3648
     28 O         0.258182   -1.945802   -0.598349 O.3        1 UNL1     -0.3841
     29 O         -2.461247   0.362225   -0.239792 O.3        1 UNL1     -0.3863
     30 O         -2.453796   -3.312013   -0.234232 O.3        1 UNL1     -0.3829
     31 H         0.634735   -1.870587   1.788502 H        1 UNL1     0.0937
     32 H         0.0   0.0   0.0 H        1 UNL1     0.0671
     33 H         -1.879236   -1.175125   -1.415189 H        1 UNL1     0.0649
     34 H         -3.845004   -1.832806   0.063124 H        1 UNL1     0.0683
     35 H         -3.187805   -2.966039   2.136315 H        1 UNL1     0.1085
     36 H         -4.814825   -3.000351   3.416877 H        1 UNL1     0.0691
     37 H         -2.753217   0.626657   4.523575 H        1 UNL1     0.0691
     38 H         -3.306478   -1.142742   9.033093 H        1 UNL1     0.0385
     39 H         -4.865417   -0.73729   9.77731 H        1 UNL1     0.0385
     40 H         -3.630429   1.269737   8.873985 H        1 UNL1     0.0789
     41 H         -5.305523   1.88654   6.003673 H        1 UNL1     0.0623
     42 H         -7.435206   3.106458   5.807631 H        1 UNL1     0.0654
     43 H         -8.351395   2.18862   9.902451 H        1 UNL1     0.0654
     44 H         -6.273485   0.946593   10.116022 H        1 UNL1     0.0623
     45 H         -8.932948   4.367773   7.472461 H        1 UNL1     0.2921
     46 H         -5.381678   -3.994388   6.439493 H        1 UNL1     0.2922
     47 H         0.529689   0.329743   2.263561 H        1 UNL1     0.2126
     48 H         1.196244   -1.873295   -0.336596 H        1 UNL1     0.2101
     49 H         -2.030626   0.950878   -0.879984 H        1 UNL1     0.2100
     50 H         -2.698525   -3.313815   -1.182818 H        1 UNL1     0.2102
@<TRIPOS>BOND
     1     1     2    1
     2     1     6    1
     3     2     3    1
     4     3     4    1
     5     3    29    1
     6     3    33    1
     7     4     5    1
     8     5     6    1
     9     5     7    1
    10     5    35    1
    11     7     8    1
    12     8     9   ar
    13     8    13   ar
    14     9    10   ar
    15     9    36    1
    16    10    11   ar
    17    10    26    1
    18    11    12   ar
    19    11    14    1
    20    12    13   ar
    21    12    17    1
    22    13    37    1
    23    14    15    1
    24    14    25    2
    25    15    16    1
    26    15    38    1
    27    15    39    1
    28    16    17    1
    29    16    18    1
    30    16    40    1
    31    18    19   ar
    32    18    23   ar
    33    19    20   ar
    34    19    41    1
    35    20    21   ar
    36    20    42    1
    37    21    22   ar
    38    21    24    1
    39    22    23   ar
    40    22    43    1
    41    23    44    1
    42    24    45    1
    43    26    46    1
    44    27    47    1
    45    28    48    1
    46    29    49    1
    47    30    50    1
    48     1    31    1
    49     1    27    1
    50     2    32    1
    51     2    28    1
    52     4    34    1
    53     4    30    1
