@<TRIPOS>MOLECULE
*****
 50 53 0 0 0
SMALL
GASTEIGER

@<TRIPOS>ATOM
     1 C         -0.330976   -1.327505   1.702642 C.3        1 UNL1     0.1889
     2 C         -0.461997   -0.975479   0.196371 C.3        1 UNL1     0.1342
     3 C         -1.90298   -0.963837   -0.33645 C.3        1 UNL1     0.1174
     4 C         -2.788665   -2.023094   0.324347 C.3        1 UNL1     0.1456
     5 C         -2.636628   -2.047506   1.856226 C.3        1 UNL1     0.2326
     6 O         -1.271547   -2.264819   2.205796 O.3        1 UNL1     -0.3076
     7 O         -3.211854   -0.900329   2.507702 O.3        1 UNL1     -0.4605
     8 C         -3.828273   -1.138968   3.722859 C.ar        1 UNL1     0.1310
     9 C         -4.716165   -2.186843   3.98914 C.ar        1 UNL1     0.0226
     10 C         -5.276758   -2.354934   5.260904 C.ar        1 UNL1     0.1343
     11 C         -4.944223   -1.492384   6.304584 C.ar        1 UNL1     0.1007
     12 C         -4.090616   -0.417994   6.04034 C.ar        1 UNL1     0.1389
     13 C         -3.529139   -0.247641   4.760827 C.ar        1 UNL1     0.0229
     14 C         -5.44143   -1.673128   7.688156 C.2        1 UNL1     0.1740
     15 C         -4.809738   -0.791867   8.725408 C.3        1 UNL1     0.0520
     16 C         -4.631045   0.598792   8.132033 C.3        1 UNL1     0.1322
     17 O         -3.781408   0.552851   6.964525 O.3        1 UNL1     -0.4828
     18 C         -5.94569   1.35629   7.930465 C.ar        1 UNL1     -0.0067
     19 C         -6.202326   1.980845   6.692611 C.ar        1 UNL1     -0.0516
     20 C         -7.373168   2.721344   6.490737 C.ar        1 UNL1     -0.0198
     21 C         -8.289694   2.850635   7.518885 C.ar        1 UNL1     0.1169
     22 C         -8.080914   2.219452   8.738253 C.ar        1 UNL1     -0.0198
     23 C         -6.918901   1.463583   8.934328 C.ar        1 UNL1     -0.0516
     24 O         -9.40035   3.610866   7.297771 O.3        1 UNL1     -0.5068
     25 O         -6.257004   -2.534553   8.006386 O.2        1 UNL1     -0.2917
     26 O         -6.13663   -3.396404   5.45467 O.3        1 UNL1     -0.5058
     27 O         -0.225902   -0.188766   2.542296 O.3        1 UNL1     -0.3648
     28 O         0.268721   -1.954045   -0.56597 O.3        1 UNL1     -0.3841
     29 O         -2.460928   0.3496   -0.260876 O.3        1 UNL1     -0.3863
     30 O         -2.440735   -3.324045   -0.197344 O.3        1 UNL1     -0.3829
     31 H         0.629928   -1.839917   1.821709 H        1 UNL1     0.0937
     32 H         0.0   0.0   0.0 H        1 UNL1     0.0671
     33 H         -1.866163   -1.203973   -1.408223 H        1 UNL1     0.0649
     34 H         -3.838929   -1.845325   0.067939 H        1 UNL1     0.0683
     35 H         -3.190901   -2.943422   2.162812 H        1 UNL1     0.1085
     36 H         -4.971112   -2.923672   3.235346 H        1 UNL1     0.0691
     37 H         -2.868273   0.597497   4.580574 H        1 UNL1     0.0691
     38 H         -3.844135   -1.234402   8.992429 H        1 UNL1     0.0385
     39 H         -5.440784   -0.782089   9.620653 H        1 UNL1     0.0385
     40 H         -4.063054   1.191566   8.861777 H        1 UNL1     0.0789
     41 H         -5.494293   1.901969   5.872783 H        1 UNL1     0.0623
     42 H         -7.554001   3.208136   5.535569 H        1 UNL1     0.0654
     43 H         -8.799248   2.301666   9.54519 H        1 UNL1     0.0654
     44 H         -6.793281   0.975387   9.895957 H        1 UNL1     0.0623
     45 H         -9.116304   4.516211   7.091895 H        1 UNL1     0.2921
     46 H         -5.812483   -3.952832   6.180431 H        1 UNL1     0.2922
     47 H         0.516776   0.365116   2.263902 H        1 UNL1     0.2126
     48 H         1.20169   -1.887682   -0.285086 H        1 UNL1     0.2101
     49 H         -2.022474   0.931782   -0.901669 H        1 UNL1     0.2100
     50 H         -2.674243   -3.339727   -1.148628 H        1 UNL1     0.2102
@<TRIPOS>BOND
     1     1     2    1
     2     1     6    1
     3     2     3    1
     4     3     4    1
     5     3    29    1
     6     3    33    1
     7     4     5    1
     8     5     6    1
     9     5     7    1
    10     5    35    1
    11     7     8    1
    12     8     9   ar
    13     8    13   ar
    14     9    10   ar
    15     9    36    1
    16    10    11   ar
    17    10    26    1
    18    11    12   ar
    19    11    14    1
    20    12    13   ar
    21    12    17    1
    22    13    37    1
    23    14    15    1
    24    14    25    2
    25    15    16    1
    26    15    38    1
    27    15    39    1
    28    16    17    1
    29    16    18    1
    30    16    40    1
    31    18    19   ar
    32    18    23   ar
    33    19    20   ar
    34    19    41    1
    35    20    21   ar
    36    20    42    1
    37    21    22   ar
    38    21    24    1
    39    22    23   ar
    40    22    43    1
    41    23    44    1
    42    24    45    1
    43    26    46    1
    44    27    47    1
    45    28    48    1
    46    29    49    1
    47    30    50    1
    48     1    31    1
    49     1    27    1
    50     2    32    1
    51     2    28    1
    52     4    34    1
    53     4    30    1
