@<TRIPOS>MOLECULE
*****
 50 53 0 0 0
SMALL
GASTEIGER

@<TRIPOS>ATOM
     1 C         -0.975319   -1.258741   -1.495035 C.3        1 UNL1     0.1889
     2 C         0.104762   -1.013246   -0.407333 C.3        1 UNL1     0.1342
     3 C         1.551576   -1.214869   -0.883299 C.3        1 UNL1     0.1174
     4 C         1.686038   -2.338081   -1.914528 C.3        1 UNL1     0.1456
     5 C         0.618052   -2.255012   -3.020363 C.3        1 UNL1     0.2326
     6 O         -0.684452   -2.277201   -2.440831 O.3        1 UNL1     -0.3076
     7 O         0.815551   -1.154443   -3.926488 O.3        1 UNL1     -0.4605
     8 C         2.092558   -0.624217   -3.967 C.ar        1 UNL1     0.1310
     9 C         2.780478   -0.255636   -5.128126 C.ar        1 UNL1     0.0226
     10 C         4.068025   0.290276   -5.064041 C.ar        1 UNL1     0.1343
     11 C         4.690073   0.503139   -3.834575 C.ar        1 UNL1     0.1007
     12 C         4.029659   0.101128   -2.67052 C.ar        1 UNL1     0.1389
     13 C         2.736114   -0.450202   -2.735385 C.ar        1 UNL1     0.0229
     14 C         6.014529   1.153474   -3.704064 C.2        1 UNL1     0.1740
     15 C         6.430712   1.504113   -2.305711 C.3        1 UNL1     0.0520
     16 C         6.022113   0.365284   -1.38155 C.3        1 UNL1     0.1322
     17 O         4.591912   0.164389   -1.416672 O.3        1 UNL1     -0.4828
     18 C         6.846713   -0.90987   -1.573231 C.ar        1 UNL1     -0.0067
     19 C         6.244106   -2.043046   -2.157175 C.ar        1 UNL1     -0.0516
     20 C         6.955675   -3.239782   -2.303658 C.ar        1 UNL1     -0.0198
     21 C         8.265181   -3.318177   -1.864483 C.ar        1 UNL1     0.1169
     22 C         8.896526   -2.209416   -1.315948 C.ar        1 UNL1     -0.0198
     23 C         8.191015   -1.007136   -1.18621 C.ar        1 UNL1     -0.0516
     24 O         8.914365   -4.51125   -1.989134 O.3        1 UNL1     -0.5068
     25 O         6.710406   1.469209   -4.665601 O.2        1 UNL1     -0.2917
     26 O         4.684879   0.627746   -6.23331 O.3        1 UNL1     -0.5058
     27 O         -1.422098   -0.069535   -2.126672 O.3        1 UNL1     -0.3648
     28 O         -0.121863   -1.933513   0.67639 O.3        1 UNL1     -0.3841
     29 O         2.114129   0.019456   -1.332863 O.3        1 UNL1     -0.3863
     30 O         1.563579   -3.61227   -1.245847 O.3        1 UNL1     -0.3829
     31 H         -1.862162   -1.6376   -0.975368 H        1 UNL1     0.0937
     32 H         0.0   0.0   0.0 H        1 UNL1     0.0671
     33 H         2.153202   -1.509563   -0.012138 H        1 UNL1     0.0649
     34 H         2.68183   -2.309818   -2.370599 H        1 UNL1     0.0683
     35 H         0.736874   -3.194828   -3.573993 H        1 UNL1     0.1085
     36 H         2.329449   -0.343931   -6.110418 H        1 UNL1     0.0691
     37 H         2.24388   -0.756117   -1.814725 H        1 UNL1     0.0691
     38 H         5.923299   2.435576   -2.032882 H        1 UNL1     0.0385
     39 H         7.510865   1.684974   -2.287384 H        1 UNL1     0.0385
     40 H         6.228185   0.692816   -0.353553 H        1 UNL1     0.0789
     41 H         5.214568   -2.009824   -2.501556 H        1 UNL1     0.0623
     42 H         6.47615   -4.110181   -2.74465 H        1 UNL1     0.0654
     43 H         9.926389   -2.255425   -0.982515 H        1 UNL1     0.0654
     44 H         8.718795   -0.157935   -0.762948 H        1 UNL1     0.0623
     45 H         8.546312   -5.130185   -1.337847 H        1 UNL1     0.2921
     46 H         5.458731   1.181177   -6.042836 H        1 UNL1     0.2922
     47 H         -2.272721   -0.220835   -2.561884 H        1 UNL1     0.2126
     48 H         0.584992   -2.605426   0.625195 H        1 UNL1     0.2101
     49 H         1.95489   0.127666   -2.284035 H        1 UNL1     0.2100
     50 H         0.654713   -3.677898   -0.886167 H        1 UNL1     0.2102
@<TRIPOS>BOND
     1     1     2    1
     2     1     6    1
     3     2     3    1
     4     3     4    1
     5     3    29    1
     6     3    33    1
     7     4     5    1
     8     5     6    1
     9     5     7    1
    10     5    35    1
    11     7     8    1
    12     8     9   ar
    13     8    13   ar
    14     9    10   ar
    15     9    36    1
    16    10    11   ar
    17    10    26    1
    18    11    12   ar
    19    11    14    1
    20    12    13   ar
    21    12    17    1
    22    13    37    1
    23    14    15    1
    24    14    25    2
    25    15    16    1
    26    15    38    1
    27    15    39    1
    28    16    17    1
    29    16    18    1
    30    16    40    1
    31    18    19   ar
    32    18    23   ar
    33    19    20   ar
    34    19    41    1
    35    20    21   ar
    36    20    42    1
    37    21    22   ar
    38    21    24    1
    39    22    23   ar
    40    22    43    1
    41    23    44    1
    42    24    45    1
    43    26    46    1
    44    27    47    1
    45    28    48    1
    46    29    49    1
    47    30    50    1
    48     1    31    1
    49     1    27    1
    50     2    32    1
    51     2    28    1
    52     4    34    1
    53     4    30    1
