@<TRIPOS>MOLECULE
*****
 50 53 0 0 0
SMALL
GASTEIGER

@<TRIPOS>ATOM
     1 C         -1.702279   -1.169546   0.710784 C.3        1 UNL1     0.1889
     2 C         -0.911314   -0.449052   -0.414029 C.3        1 UNL1     0.1342
     3 C         -1.705043   0.630536   -1.165661 C.3        1 UNL1     0.1174
     4 C         -3.18672   0.27844   -1.319868 C.3        1 UNL1     0.1456
     5 C         -3.812858   -0.227419   -0.007457 C.3        1 UNL1     0.2326
     6 O         -3.089245   -1.358509   0.472009 O.3        1 UNL1     -0.3076
     7 O         -3.975132   0.802569   0.984568 O.3        1 UNL1     -0.4605
     8 C         -5.07606   1.62562   0.829411 C.ar        1 UNL1     0.1310
     9 C         -5.968752   1.59052   -0.247236 C.ar        1 UNL1     0.0226
     10 C         -7.067037   2.45672   -0.305292 C.ar        1 UNL1     0.1343
     11 C         -7.312913   3.363738   0.724613 C.ar        1 UNL1     0.1007
     12 C         -6.405614   3.436301   1.784955 C.ar        1 UNL1     0.1389
     13 C         -5.299902   2.567048   1.841798 C.ar        1 UNL1     0.0229
     14 C         -8.503964   4.243857   0.755326 C.2        1 UNL1     0.1740
     15 C         -8.72649   4.990719   2.037601 C.3        1 UNL1     0.0520
     16 C         -7.378655   5.477435   2.551806 C.3        1 UNL1     0.1322
     17 O         -6.490924   4.364332   2.79676 O.3        1 UNL1     -0.4828
     18 C         -6.768637   6.602511   1.712278 C.ar        1 UNL1     -0.0067
     19 C         -7.555763   7.724693   1.381593 C.ar        1 UNL1     -0.0516
     20 C         -7.04393   8.748879   0.575967 C.ar        1 UNL1     -0.0198
     21 C         -5.751854   8.659346   0.089809 C.ar        1 UNL1     0.1169
     22 C         -4.94108   7.582891   0.42556 C.ar        1 UNL1     -0.0198
     23 C         -5.446499   6.567524   1.246315 C.ar        1 UNL1     -0.0516
     24 O         -5.300482   9.657504   -0.722806 O.3        1 UNL1     -0.5068
     25 O         -9.316127   4.314742   -0.163288 O.2        1 UNL1     -0.2917
     26 O         -7.89922   2.372412   -1.383229 O.3        1 UNL1     -0.5058
     27 O         -1.461283   -0.63523   2.002765 O.3        1 UNL1     -0.3648
     28 O         -0.499911   -1.430972   -1.383198 O.3        1 UNL1     -0.3841
     29 O         -1.500112   1.914941   -0.573682 O.3        1 UNL1     -0.3863
     30 O         -3.327616   -0.747169   -2.326826 O.3        1 UNL1     -0.3829
     31 H         -1.310112   -2.191042   0.763981 H        1 UNL1     0.0937
     32 H         0.0   0.0   0.0 H        1 UNL1     0.0671
     33 H         -1.289347   0.707134   -2.180081 H        1 UNL1     0.0649
     34 H         -3.744174   1.153064   -1.672967 H        1 UNL1     0.0683
     35 H         -4.804436   -0.587563   -0.309033 H        1 UNL1     0.1085
     36 H         -5.864127   0.870533   -1.05147 H        1 UNL1     0.0691
     37 H         -4.607681   2.644391   2.677466 H        1 UNL1     0.0691
     38 H         -9.19349   4.299127   2.746923 H        1 UNL1     0.0385
     39 H         -9.422997   5.816329   1.855876 H        1 UNL1     0.0385
     40 H         -7.549908   5.915612   3.544375 H        1 UNL1     0.0789
     41 H         -8.576014   7.814128   1.743174 H        1 UNL1     0.0623
     42 H         -7.664781   9.603347   0.318208 H        1 UNL1     0.0654
     43 H         -3.92279   7.510125   0.062654 H        1 UNL1     0.0654
     44 H         -4.781771   5.746508   1.497144 H        1 UNL1     0.0623
     45 H         -5.215958   9.305056   -1.623557 H        1 UNL1     0.2921
     46 H         -7.571724   1.691851   -1.992323 H        1 UNL1     0.2922
     47 H         -1.430158   0.330932   1.96505 H        1 UNL1     0.2126
     48 H         -0.647033   -1.034044   -2.263275 H        1 UNL1     0.2101
     49 H         -2.074737   2.570404   -1.000258 H        1 UNL1     0.2100
     50 H         -3.469832   -1.601568   -1.869128 H        1 UNL1     0.2102
@<TRIPOS>BOND
     1     1     2    1
     2     1     6    1
     3     2     3    1
     4     3     4    1
     5     3    29    1
     6     3    33    1
     7     4     5    1
     8     5     6    1
     9     5     7    1
    10     5    35    1
    11     7     8    1
    12     8     9   ar
    13     8    13   ar
    14     9    10   ar
    15     9    36    1
    16    10    11   ar
    17    10    26    1
    18    11    12   ar
    19    11    14    1
    20    12    13   ar
    21    12    17    1
    22    13    37    1
    23    14    15    1
    24    14    25    2
    25    15    16    1
    26    15    38    1
    27    15    39    1
    28    16    17    1
    29    16    18    1
    30    16    40    1
    31    18    19   ar
    32    18    23   ar
    33    19    20   ar
    34    19    41    1
    35    20    21   ar
    36    20    42    1
    37    21    22   ar
    38    21    24    1
    39    22    23   ar
    40    22    43    1
    41    23    44    1
    42    24    45    1
    43    26    46    1
    44    27    47    1
    45    28    48    1
    46    29    49    1
    47    30    50    1
    48     1    31    1
    49     1    27    1
    50     2    32    1
    51     2    28    1
    52     4    34    1
    53     4    30    1
