@<TRIPOS>MOLECULE
*****
 50 53 0 0 0
SMALL
GASTEIGER

@<TRIPOS>ATOM
     1 C         -0.404993   -1.373967   1.648939 C.3        1 UNL1     0.1889
     2 C         -0.496705   -0.966   0.153916 C.3        1 UNL1     0.1342
     3 C         -1.926454   -0.888691   -0.403135 C.3        1 UNL1     0.1174
     4 C         -2.857849   -1.940522   0.204541 C.3        1 UNL1     0.1456
     5 C         -2.735068   -2.02282   1.737028 C.3        1 UNL1     0.2326
     6 O         -1.384394   -2.296746   2.102424 O.3        1 UNL1     -0.3076
     7 O         -3.285046   -0.880584   2.418308 O.3        1 UNL1     -0.4605
     8 C         -3.834787   -1.124465   3.664034 C.ar        1 UNL1     0.1310
     9 C         -4.923554   -1.965292   3.918784 C.ar        1 UNL1     0.0226
     10 C         -5.39745   -2.161189   5.221454 C.ar        1 UNL1     0.1343
     11 C         -4.778422   -1.538972   6.304733 C.ar        1 UNL1     0.1007
     12 C         -3.716212   -0.664941   6.058637 C.ar        1 UNL1     0.1389
     13 C         -3.241577   -0.466076   4.748444 C.ar        1 UNL1     0.0229
     14 C         -5.184561   -1.77595   7.709384 C.2        1 UNL1     0.1740
     15 C         -4.2724   -1.203653   8.754366 C.3        1 UNL1     0.0520
     16 C         -3.814209   0.172793   8.2924 C.3        1 UNL1     0.1322
     17 O         -3.103759   0.082399   7.037745 O.3        1 UNL1     -0.4828
     18 C         -4.919042   1.231687   8.320927 C.ar        1 UNL1     -0.0067
     19 C         -4.587542   2.584522   8.101478 C.ar        1 UNL1     -0.0516
     20 C         -5.565938   3.583687   8.167617 C.ar        1 UNL1     -0.0198
     21 C         -6.875104   3.244541   8.458978 C.ar        1 UNL1     0.1169
     22 C         -7.238597   1.917365   8.646902 C.ar        1 UNL1     -0.0198
     23 C         -6.263789   0.916017   8.562592 C.ar        1 UNL1     -0.0516
     24 O         -7.793418   4.248714   8.552448 O.3        1 UNL1     -0.5068
     25 O         -6.153924   -2.460171   8.026659 O.2        1 UNL1     -0.2917
     26 O         -6.463777   -2.993006   5.402043 O.3        1 UNL1     -0.5058
     27 O         -0.278895   -0.268978   2.529783 O.3        1 UNL1     -0.3648
     28 O         0.216136   -1.941087   -0.629518 O.3        1 UNL1     -0.3841
     29 O         -2.443152   0.438946   -0.291173 O.3        1 UNL1     -0.3863
     30 O         -2.542363   -3.233384   -0.356409 O.3        1 UNL1     -0.3829
     31 H         0.536555   -1.921433   1.766616 H        1 UNL1     0.0937
     32 H         0.0   0.0   0.0 H        1 UNL1     0.0671
     33 H         -1.877543   -1.092732   -1.481882 H        1 UNL1     0.0649
     34 H         -3.896921   -1.719641   -0.063682 H        1 UNL1     0.0683
     35 H         -3.323465   -2.910128   2.002266 H        1 UNL1     0.1085
     36 H         -5.412445   -2.521131   3.126226 H        1 UNL1     0.0691
     37 H         -2.413908   0.220362   4.583341 H        1 UNL1     0.0691
     38 H         -3.423227   -1.886789   8.862804 H        1 UNL1     0.0385
     39 H         -4.803552   -1.163596   9.711472 H        1 UNL1     0.0385
     40 H         -3.059607   0.520743   9.010751 H        1 UNL1     0.0789
     41 H         -3.565396   2.87757   7.880142 H        1 UNL1     0.0623
     42 H         -5.295601   4.624614   8.008239 H        1 UNL1     0.0654
     43 H         -8.263661   1.639107   8.860741 H        1 UNL1     0.0654
     44 H         -6.585129   -0.111339   8.704456 H        1 UNL1     0.0623
     45 H         -7.321062   5.082946   8.706245 H        1 UNL1     0.2921
     46 H         -6.293538   -3.577943   6.157211 H        1 UNL1     0.2922
     47 H         0.63563   0.046196   2.542753 H        1 UNL1     0.2126
     48 H         0.198472   -1.624751   -1.553288 H        1 UNL1     0.2101
     49 H         -3.00324   0.509615   0.498195 H        1 UNL1     0.2100
     50 H         -2.797591   -3.222119   -1.302159 H        1 UNL1     0.2102
@<TRIPOS>BOND
     1     1     2    1
     2     1     6    1
     3     2     3    1
     4     3     4    1
     5     3    29    1
     6     3    33    1
     7     4     5    1
     8     5     6    1
     9     5     7    1
    10     5    35    1
    11     7     8    1
    12     8     9   ar
    13     8    13   ar
    14     9    10   ar
    15     9    36    1
    16    10    11   ar
    17    10    26    1
    18    11    12   ar
    19    11    14    1
    20    12    13   ar
    21    12    17    1
    22    13    37    1
    23    14    15    1
    24    14    25    2
    25    15    16    1
    26    15    38    1
    27    15    39    1
    28    16    17    1
    29    16    18    1
    30    16    40    1
    31    18    19   ar
    32    18    23   ar
    33    19    20   ar
    34    19    41    1
    35    20    21   ar
    36    20    42    1
    37    21    22   ar
    38    21    24    1
    39    22    23   ar
    40    22    43    1
    41    23    44    1
    42    24    45    1
    43    26    46    1
    44    27    47    1
    45    28    48    1
    46    29    49    1
    47    30    50    1
    48     1    31    1
    49     1    27    1
    50     2    32    1
    51     2    28    1
    52     4    34    1
    53     4    30    1
