@<TRIPOS>MOLECULE
*****
 50 53 0 0 0
SMALL
GASTEIGER

@<TRIPOS>ATOM
     1 C         -0.393998   1.823861   1.135386 C.3        1 UNL1     0.1889
     2 C         0.52065   0.93175   0.253628 C.3        1 UNL1     0.1342
     3 C         1.881119   0.590824   0.880812 C.3        1 UNL1     0.1174
     4 C         2.444962   1.731539   1.731675 C.3        1 UNL1     0.1456
     5 C         1.395038   2.331926   2.684334 C.3        1 UNL1     0.2326
     6 O         0.26802   2.788644   1.93995 O.3        1 UNL1     -0.3076
     7 O         1.03915   1.456762   3.770037 O.3        1 UNL1     -0.4605
     8 C         1.985242   1.314583   4.769148 C.ar        1 UNL1     0.1310
     9 C         1.792596   0.635093   5.976824 C.ar        1 UNL1     0.0226
     10 C         2.821134   0.531228   6.92087 C.ar        1 UNL1     0.1343
     11 C         4.075959   1.084485   6.669546 C.ar        1 UNL1     0.1007
     12 C         4.26791   1.800652   5.485044 C.ar        1 UNL1     0.1389
     13 C         3.232754   1.907208   4.537137 C.ar        1 UNL1     0.0229
     14 C         5.222905   0.932705   7.594549 C.2        1 UNL1     0.1740
     15 C         6.548789   1.39583   7.066254 C.3        1 UNL1     0.0520
     16 C         6.333462   2.687674   6.289896 C.3        1 UNL1     0.1322
     17 O         5.427605   2.476689   5.184465 O.3        1 UNL1     -0.4828
     18 C         5.986245   3.887563   7.174446 C.ar        1 UNL1     -0.0067
     19 C         6.88831   4.967798   7.26155 C.ar        1 UNL1     -0.0516
     20 C         6.623652   6.059004   8.097724 C.ar        1 UNL1     -0.0198
     21 C         5.466568   6.078447   8.855751 C.ar        1 UNL1     0.1169
     22 C         4.542921   5.045158   8.766157 C.ar        1 UNL1     -0.0198
     23 C         4.798509   3.9625   7.916108 C.ar        1 UNL1     -0.0516
     24 O         5.260879   7.13995   9.687198 O.3        1 UNL1     -0.5068
     25 O         5.137488   0.393292   8.69465 O.2        1 UNL1     -0.2917
     26 O         2.568188   -0.143853   8.07926 O.3        1 UNL1     -0.5058
     27 O         -1.351997   1.089054   1.880425 O.3        1 UNL1     -0.3648
     28 O         0.779891   1.624598   -0.981467 O.3        1 UNL1     -0.3841
     29 O         1.816495   -0.648455   1.589433 O.3        1 UNL1     -0.3863
     30 O         2.932594   2.775573   0.861102 O.3        1 UNL1     -0.3829
     31 H         -0.994213   2.431168   0.449094 H        1 UNL1     0.0937
     32 H         0.0   -0.0   0.0 H        1 UNL1     0.0671
     33 H         2.594838   0.422061   0.062371 H        1 UNL1     0.0649
     34 H         3.300931   1.374984   2.315273 H        1 UNL1     0.0683
     35 H         1.888331   3.222032   3.094519 H        1 UNL1     0.1085
     36 H         0.857984   0.135567   6.207247 H        1 UNL1     0.0691
     37 H         3.407251   2.471112   3.623323 H        1 UNL1     0.0691
     38 H         6.940966   0.605643   6.417156 H        1 UNL1     0.0385
     39 H         7.242872   1.526681   7.903454 H        1 UNL1     0.0385
     40 H         7.290544   2.943631   5.815554 H        1 UNL1     0.0789
     41 H         7.807903   4.972115   6.68364 H        1 UNL1     0.0623
     42 H         7.33277   6.880349   8.165218 H        1 UNL1     0.0654
     43 H         3.62646   5.057382   9.343964 H        1 UNL1     0.0654
     44 H         4.050044   3.177761   7.862898 H        1 UNL1     0.0623
     45 H         5.904056   7.832581   9.465154 H        1 UNL1     0.2921
     46 H         1.705722   0.128368   8.430627 H        1 UNL1     0.2922
     47 H         -2.211172   1.532675   1.850756 H        1 UNL1     0.2126
     48 H         1.549922   2.203459   -0.82114 H        1 UNL1     0.2101
     49 H         1.32312   -1.301461   1.067938 H        1 UNL1     0.2100
     50 H         2.670476   3.63696   1.247131 H        1 UNL1     0.2102
@<TRIPOS>BOND
     1     1     2    1
     2     1     6    1
     3     2     3    1
     4     3     4    1
     5     3    29    1
     6     3    33    1
     7     4     5    1
     8     5     6    1
     9     5     7    1
    10     5    35    1
    11     7     8    1
    12     8     9   ar
    13     8    13   ar
    14     9    10   ar
    15     9    36    1
    16    10    11   ar
    17    10    26    1
    18    11    12   ar
    19    11    14    1
    20    12    13   ar
    21    12    17    1
    22    13    37    1
    23    14    15    1
    24    14    25    2
    25    15    16    1
    26    15    38    1
    27    15    39    1
    28    16    17    1
    29    16    18    1
    30    16    40    1
    31    18    19   ar
    32    18    23   ar
    33    19    20   ar
    34    19    41    1
    35    20    21   ar
    36    20    42    1
    37    21    22   ar
    38    21    24    1
    39    22    23   ar
    40    22    43    1
    41    23    44    1
    42    24    45    1
    43    26    46    1
    44    27    47    1
    45    28    48    1
    46    29    49    1
    47    30    50    1
    48     1    31    1
    49     1    27    1
    50     2    32    1
    51     2    28    1
    52     4    34    1
    53     4    30    1
