@<TRIPOS>MOLECULE
*****
 50 53 0 0 0
SMALL
GASTEIGER

@<TRIPOS>ATOM
     1 C         -0.342548   -1.33762   1.692406 C.3        1 UNL1     0.1889
     2 C         -0.463475   -0.976535   0.187436 C.3        1 UNL1     0.1342
     3 C         -1.900877   -0.961372   -0.354883 C.3        1 UNL1     0.1174
     4 C         -2.791137   -2.024375   0.293639 C.3        1 UNL1     0.1456
     5 C         -2.649304   -2.058009   1.826321 C.3        1 UNL1     0.2326
     6 O         -1.286621   -2.277723   2.183657 O.3        1 UNL1     -0.3076
     7 O         -3.228641   -0.914631   2.480825 O.3        1 UNL1     -0.4605
     8 C         -3.746629   -1.137133   3.744039 C.ar        1 UNL1     0.1310
     9 C         -4.565233   -2.212262   4.106373 C.ar        1 UNL1     0.0226
     10 C         -5.026805   -2.359962   5.41978 C.ar        1 UNL1     0.1343
     11 C         -4.66109   -1.448186   6.409102 C.ar        1 UNL1     0.1007
     12 C         -3.877709   -0.347983   6.050423 C.ar        1 UNL1     0.1389
     13 C         -3.415903   -0.198257   4.729155 C.ar        1 UNL1     0.0229
     14 C         -5.051061   -1.601913   7.829822 C.2        1 UNL1     0.1740
     15 C         -4.388536   -0.658839   8.790666 C.3        1 UNL1     0.0520
     16 C         -4.315173   0.716747   8.14233 C.3        1 UNL1     0.1322
     17 O         -3.548546   0.666768   6.918869 O.3        1 UNL1     -0.4828
     18 C         -5.673688   1.409661   8.011825 C.ar        1 UNL1     -0.0067
     19 C         -6.043591   1.981681   6.777249 C.ar        1 UNL1     -0.0516
     20 C         -7.258046   2.663832   6.636781 C.ar        1 UNL1     -0.0198
     21 C         -8.10606   2.786934   7.722849 C.ar        1 UNL1     0.1169
     22 C         -7.784827   2.205621   8.942572 C.ar        1 UNL1     -0.0198
     23 C         -6.578875   1.507551   9.078338 C.ar        1 UNL1     -0.0516
     24 O         -9.262766   3.490763   7.558359 O.3        1 UNL1     -0.5068
     25 O         -5.802388   -2.485968   8.232858 O.2        1 UNL1     -0.2917
     26 O         -5.822876   -3.430013   5.707608 O.3        1 UNL1     -0.5058
     27 O         -0.242853   -0.203961   2.539558 O.3        1 UNL1     -0.3648
     28 O         0.272119   -1.950676   -0.575883 O.3        1 UNL1     -0.3841
     29 O         -2.459073   0.351713   -0.275145 O.3        1 UNL1     -0.3863
     30 O         -2.439984   -3.322252   -0.233522 O.3        1 UNL1     -0.3829
     31 H         0.617447   -1.850953   1.814789 H        1 UNL1     0.0937
     32 H         0.0   0.0   0.0 H        1 UNL1     0.0671
     33 H         -1.856972   -1.195084   -1.427809 H        1 UNL1     0.0649
     34 H         -3.839638   -1.844834   0.031318 H        1 UNL1     0.0683
     35 H         -3.205771   -2.955623   2.123832 H        1 UNL1     0.1085
     36 H         -4.838937   -2.985104   3.396499 H        1 UNL1     0.0691
     37 H         -2.8083   0.667691   4.475294 H        1 UNL1     0.0691
     38 H         -3.387498   -1.049977   9.001525 H        1 UNL1     0.0385
     39 H         -4.95485   -0.645048   9.728151 H        1 UNL1     0.0385
     40 H         -3.72469   1.358353   8.810306 H        1 UNL1     0.0789
     41 H         -5.391211   1.906718   5.912129 H        1 UNL1     0.0623
     42 H         -7.52656   3.110822   5.682783 H        1 UNL1     0.0654
     43 H         -8.448518   2.28305   9.795467 H        1 UNL1     0.0654
     44 H         -6.364873   1.056981   10.042721 H        1 UNL1     0.0623
     45 H         -9.034989   4.401791   7.311657 H        1 UNL1     0.2921
     46 H         -5.424323   -3.945686   6.426391 H        1 UNL1     0.2922
     47 H         0.499237   0.353544   2.266887 H        1 UNL1     0.2126
     48 H         1.206029   -1.874462   -0.300679 H        1 UNL1     0.2101
     49 H         -2.018265   0.936901   -0.91157 H        1 UNL1     0.2100
     50 H         -2.672384   -3.33411   -1.185132 H        1 UNL1     0.2102
@<TRIPOS>BOND
     1     1     2    1
     2     1     6    1
     3     2     3    1
     4     3     4    1
     5     3    29    1
     6     3    33    1
     7     4     5    1
     8     5     6    1
     9     5     7    1
    10     5    35    1
    11     7     8    1
    12     8     9   ar
    13     8    13   ar
    14     9    10   ar
    15     9    36    1
    16    10    11   ar
    17    10    26    1
    18    11    12   ar
    19    11    14    1
    20    12    13   ar
    21    12    17    1
    22    13    37    1
    23    14    15    1
    24    14    25    2
    25    15    16    1
    26    15    38    1
    27    15    39    1
    28    16    17    1
    29    16    18    1
    30    16    40    1
    31    18    19   ar
    32    18    23   ar
    33    19    20   ar
    34    19    41    1
    35    20    21   ar
    36    20    42    1
    37    21    22   ar
    38    21    24    1
    39    22    23   ar
    40    22    43    1
    41    23    44    1
    42    24    45    1
    43    26    46    1
    44    27    47    1
    45    28    48    1
    46    29    49    1
    47    30    50    1
    48     1    31    1
    49     1    27    1
    50     2    32    1
    51     2    28    1
    52     4    34    1
    53     4    30    1
