@<TRIPOS>MOLECULE
*****
 50 53 0 0 0
SMALL
GASTEIGER

@<TRIPOS>ATOM
     1 C         -0.682149   -1.032251   1.799982 C.3        1 UNL1     0.1889
     2 C         -0.546937   -0.915372   0.257907 C.3        1 UNL1     0.1342
     3 C         -1.879822   -0.93476   -0.505971 C.3        1 UNL1     0.1174
     4 C         -2.924052   -1.844862   0.145501 C.3        1 UNL1     0.1456
     5 C         -3.022452   -1.635131   1.667571 C.3        1 UNL1     0.2326
     6 O         -1.747529   -1.844624   2.270524 O.3        1 UNL1     -0.3076
     7 O         -3.623109   -0.380114   2.035623 O.3        1 UNL1     -0.4605
     8 C         -4.342036   -0.375594   3.217423 C.ar        1 UNL1     0.1310
     9 C         -5.272044   -1.346689   3.603894 C.ar        1 UNL1     0.0226
     10 C         -5.938391   -1.262365   4.832216 C.ar        1 UNL1     0.1343
     11 C         -5.673022   -0.216506   5.715166 C.ar        1 UNL1     0.1007
     12 C         -4.776747   0.781211   5.322696 C.ar        1 UNL1     0.1389
     13 C         -4.108835   0.697603   4.086438 C.ar        1 UNL1     0.0229
     14 C         -6.285638   -0.12339   7.060597 C.2        1 UNL1     0.1740
     15 C         -5.721244   0.937711   7.95897 C.3        1 UNL1     0.0520
     16 C         -5.463432   2.186363   7.126889 C.3        1 UNL1     0.1322
     17 O         -4.522416   1.910378   6.066044 O.3        1 UNL1     -0.4828
     18 C         -6.739842   2.898856   6.673175 C.ar        1 UNL1     -0.0067
     19 C         -6.880299   3.274055   5.321246 C.ar        1 UNL1     -0.0516
     20 C         -8.013781   3.96891   4.882659 C.ar        1 UNL1     -0.0198
     21 C         -9.008177   4.300163   5.785585 C.ar        1 UNL1     0.1169
     22 C         -8.914039   3.915189   7.116664 C.ar        1 UNL1     -0.0198
     23 C         -7.789227   3.204188   7.551786 C.ar        1 UNL1     -0.0516
     24 O         -10.079673   5.010284   5.329486 O.3        1 UNL1     -0.5068
     25 O         -7.143648   -0.901967   7.468176 O.2        1 UNL1     -0.2917
     26 O         -6.834406   -2.241362   5.148926 O.3        1 UNL1     -0.5058
     27 O         -0.643517   0.219116   2.467348 O.3        1 UNL1     -0.3648
     28 O         0.235145   -2.026936   -0.216936 O.3        1 UNL1     -0.3841
     29 O         -2.360464   0.393753   -0.720841 O.3        1 UNL1     -0.3863
     30 O         -2.577679   -3.223122   -0.111625 O.3        1 UNL1     -0.3829
     31 H         0.213543   -1.554346   2.153865 H        1 UNL1     0.0937
     32 H         0.0   0.0   -0.0 H        1 UNL1     0.0671
     33 H         -1.685817   -1.340586   -1.508661 H        1 UNL1     0.0649
     34 H         -3.906317   -1.671286   -0.307739 H        1 UNL1     0.0683
     35 H         -3.673115   -2.451396   2.005548 H        1 UNL1     0.1085
     36 H         -5.480984   -2.213671   2.986799 H        1 UNL1     0.0691
     37 H         -3.416624   1.48783   3.803809 H        1 UNL1     0.0691
     38 H         -4.790896   0.549072   8.386683 H        1 UNL1     0.0385
     39 H         -6.423005   1.124238   8.779042 H        1 UNL1     0.0385
     40 H         -4.943845   2.9054   7.774604 H        1 UNL1     0.0789
     41 H         -6.109549   3.033823   4.594691 H        1 UNL1     0.0623
     42 H         -8.10492   4.263091   3.839988 H        1 UNL1     0.0654
     43 H         -9.693925   4.156269   7.829102 H        1 UNL1     0.0654
     44 H         -7.753662   2.910224   8.596375 H        1 UNL1     0.0623
     45 H         -9.759352   5.856513   4.97734 H        1 UNL1     0.2921
     46 H         -6.582541   -2.64997   5.992143 H        1 UNL1     0.2922
     47 H         0.167148   0.695259   2.23938 H        1 UNL1     0.2126
     48 H         1.112779   -1.951851   0.20479 H        1 UNL1     0.2101
     49 H         -1.789399   0.852367   -1.357513 H        1 UNL1     0.2100
     50 H         -2.655489   -3.37875   -1.075699 H        1 UNL1     0.2102
@<TRIPOS>BOND
     1     1     2    1
     2     1     6    1
     3     2     3    1
     4     3     4    1
     5     3    29    1
     6     3    33    1
     7     4     5    1
     8     5     6    1
     9     5     7    1
    10     5    35    1
    11     7     8    1
    12     8     9   ar
    13     8    13   ar
    14     9    10   ar
    15     9    36    1
    16    10    11   ar
    17    10    26    1
    18    11    12   ar
    19    11    14    1
    20    12    13   ar
    21    12    17    1
    22    13    37    1
    23    14    15    1
    24    14    25    2
    25    15    16    1
    26    15    38    1
    27    15    39    1
    28    16    17    1
    29    16    18    1
    30    16    40    1
    31    18    19   ar
    32    18    23   ar
    33    19    20   ar
    34    19    41    1
    35    20    21   ar
    36    20    42    1
    37    21    22   ar
    38    21    24    1
    39    22    23   ar
    40    22    43    1
    41    23    44    1
    42    24    45    1
    43    26    46    1
    44    27    47    1
    45    28    48    1
    46    29    49    1
    47    30    50    1
    48     1    31    1
    49     1    27    1
    50     2    32    1
    51     2    28    1
    52     4    34    1
    53     4    30    1
