@<TRIPOS>MOLECULE
*****
 50 53 0 0 0
SMALL
GASTEIGER

@<TRIPOS>ATOM
     1 C         0.169908   -0.887957   -1.988333 C.3        1 UNL1     0.1889
     2 C         0.532271   -0.830625   -0.479908 C.3        1 UNL1     0.1342
     3 C         2.034551   -0.699703   -0.185831 C.3        1 UNL1     0.1174
     4 C         2.904826   -1.450937   -1.196467 C.3        1 UNL1     0.1456
     5 C         2.47772   -1.189709   -2.652387 C.3        1 UNL1     0.2326
     6 O         1.108004   -1.544434   -2.828219 O.3        1 UNL1     -0.3076
     7 O         2.780617   0.141248   -3.108598 O.3        1 UNL1     -0.4605
     8 C         1.817818   1.10211   -2.857025 C.ar        1 UNL1     0.1310
     9 C         2.018485   2.278704   -2.12719 C.ar        1 UNL1     0.0226
     10 C         0.981569   3.200711   -1.941149 C.ar        1 UNL1     0.1343
     11 C         -0.275943   2.979631   -2.501175 C.ar        1 UNL1     0.1007
     12 C         -0.499936   1.788823   -3.197297 C.ar        1 UNL1     0.1389
     13 C         0.542103   0.860664   -3.381976 C.ar        1 UNL1     0.0229
     14 C         -1.382971   3.959311   -2.406988 C.2        1 UNL1     0.1740
     15 C         -2.586789   3.661941   -3.251939 C.3        1 UNL1     0.0520
     16 C         -2.857832   2.164879   -3.194499 C.3        1 UNL1     0.1322
     17 O         -1.727081   1.419377   -3.697189 O.3        1 UNL1     -0.4828
     18 C         -3.381892   1.685144   -1.838792 C.ar        1 UNL1     -0.0067
     19 C         -3.394624   2.5766   -0.746383 C.ar        1 UNL1     -0.0516
     20 C         -3.82295   2.156574   0.518559 C.ar        1 UNL1     -0.0198
     21 C         -4.233083   0.848623   0.705324 C.ar        1 UNL1     0.1169
     22 C         -4.26351   -0.043576   -0.358581 C.ar        1 UNL1     -0.0198
     23 C         -3.852705   0.381228   -1.627768 C.ar        1 UNL1     -0.0516
     24 O         -4.607501   0.465532   1.959698 O.3        1 UNL1     -0.5068
     25 O         -1.314653   4.995772   -1.751575 O.2        1 UNL1     -0.2917
     26 O         1.24237   4.328114   -1.218287 O.3        1 UNL1     -0.5058
     27 O         -0.224424   0.365573   -2.523078 O.3        1 UNL1     -0.3648
     28 O         0.077736   -2.045433   0.144867 O.3        1 UNL1     -0.3841
     29 O         2.406449   0.67317   -0.047832 O.3        1 UNL1     -0.3863
     30 O         2.818343   -2.868571   -0.934693 O.3        1 UNL1     -0.3829
     31 H         -0.72753   -1.51073   -2.071019 H        1 UNL1     0.0937
     32 H         0.0   0.0   0.0 H        1 UNL1     0.0671
     33 H         2.224728   -1.153688   0.796742 H        1 UNL1     0.0649
     34 H         3.955073   -1.165269   -1.070868 H        1 UNL1     0.0683
     35 H         3.070136   -1.906662   -3.234539 H        1 UNL1     0.1085
     36 H         2.987876   2.535162   -1.714114 H        1 UNL1     0.0691
     37 H         0.341652   -0.059349   -3.926852 H        1 UNL1     0.0691
     38 H         -2.361431   3.983573   -4.274335 H        1 UNL1     0.0385
     39 H         -3.435487   4.250664   -2.887393 H        1 UNL1     0.0385
     40 H         -3.665041   1.954408   -3.909086 H        1 UNL1     0.0789
     41 H         -3.068892   3.60591   -0.864999 H        1 UNL1     0.0623
     42 H         -3.816873   2.850208   1.355725 H        1 UNL1     0.0654
     43 H         -4.59708   -1.065959   -0.226771 H        1 UNL1     0.0654
     44 H         -3.899501   -0.339488   -2.438462 H        1 UNL1     0.0623
     45 H         -5.419965   -0.061462   1.889725 H        1 UNL1     0.2921
     46 H         0.936626   5.106159   -1.71081 H        1 UNL1     0.2922
     47 H         0.49747   1.004838   -2.445168 H        1 UNL1     0.2126
     48 H         -0.668095   -2.374428   -0.392936 H        1 UNL1     0.2101
     49 H         1.946027   1.20834   -0.713714 H        1 UNL1     0.2100
     50 H         2.226858   -3.263994   -1.608116 H        1 UNL1     0.2102
@<TRIPOS>BOND
     1     1     2    1
     2     1     6    1
     3     2     3    1
     4     3     4    1
     5     3    29    1
     6     3    33    1
     7     4     5    1
     8     5     6    1
     9     5     7    1
    10     5    35    1
    11     7     8    1
    12     8     9   ar
    13     8    13   ar
    14     9    10   ar
    15     9    36    1
    16    10    11   ar
    17    10    26    1
    18    11    12   ar
    19    11    14    1
    20    12    13   ar
    21    12    17    1
    22    13    37    1
    23    14    15    1
    24    14    25    2
    25    15    16    1
    26    15    38    1
    27    15    39    1
    28    16    17    1
    29    16    18    1
    30    16    40    1
    31    18    19   ar
    32    18    23   ar
    33    19    20   ar
    34    19    41    1
    35    20    21   ar
    36    20    42    1
    37    21    22   ar
    38    21    24    1
    39    22    23   ar
    40    22    43    1
    41    23    44    1
    42    24    45    1
    43    26    46    1
    44    27    47    1
    45    28    48    1
    46    29    49    1
    47    30    50    1
    48     1    31    1
    49     1    27    1
    50     2    32    1
    51     2    28    1
    52     4    34    1
    53     4    30    1
