@<TRIPOS>MOLECULE
*****
 50 53 0 0 0
SMALL
GASTEIGER

@<TRIPOS>ATOM
     1 C         -0.330132   -1.32715   1.703082 C.3        1 UNL1     0.1889
     2 C         -0.461485   -0.975651   0.196717 C.3        1 UNL1     0.1342
     3 C         -1.902528   -0.9649   -0.335959 C.3        1 UNL1     0.1174
     4 C         -2.78761   -2.024402   0.325253 C.3        1 UNL1     0.1456
     5 C         -2.635404   -2.048267   1.857123 C.3        1 UNL1     0.2326
     6 O         -1.270179   -2.264784   2.20662 O.3        1 UNL1     -0.3076
     7 O         -3.211143   -0.901181   2.508306 O.3        1 UNL1     -0.4605
     8 C         -3.72   -1.115958   3.776558 C.ar        1 UNL1     0.1310
     9 C         -4.535051   -2.189427   4.151601 C.ar        1 UNL1     0.0226
     10 C         -4.987208   -2.32903   5.469162 C.ar        1 UNL1     0.1343
     11 C         -4.615345   -1.410564   6.449967 C.ar        1 UNL1     0.1007
     12 C         -3.835512   -0.312029   6.078665 C.ar        1 UNL1     0.1389
     13 C         -3.38318   -0.17045   4.753229 C.ar        1 UNL1     0.0229
     14 C         -4.995139   -1.55544   7.87437 C.2        1 UNL1     0.1740
     15 C         -4.326704   -0.605604   8.824399 C.3        1 UNL1     0.0520
     16 C         -4.259165   0.765824   8.166691 C.3        1 UNL1     0.1322
     17 O         -3.501147   0.708597   6.938194 O.3        1 UNL1     -0.4828
     18 C         -5.619194   1.456711   8.041315 C.ar        1 UNL1     -0.0067
     19 C         -5.999547   2.017862   6.804927 C.ar        1 UNL1     -0.0516
     20 C         -7.215595   2.697994   6.668505 C.ar        1 UNL1     -0.0198
     21 C         -8.054827   2.829874   7.76035 C.ar        1 UNL1     0.1169
     22 C         -7.723257   2.25927   8.982362 C.ar        1 UNL1     -0.0198
     23 C         -6.515738   1.563174   9.114287 C.ar        1 UNL1     -0.0516
     24 O         -9.213339   3.531513   7.599252 O.3        1 UNL1     -0.5068
     25 O         -5.742801   -2.437517   8.288404 O.2        1 UNL1     -0.2917
     26 O         -5.780258   -3.397883   5.769511 O.3        1 UNL1     -0.5058
     27 O         -0.225547   -0.188101   2.542377 O.3        1 UNL1     -0.3648
     28 O         0.269649   -1.954083   -0.565399 O.3        1 UNL1     -0.3841
     29 O         -2.461131   0.348278   -0.260731 O.3        1 UNL1     -0.3863
     30 O         -2.439077   -3.325337   -0.196075 O.3        1 UNL1     -0.3829
     31 H         0.631042   -1.83904   1.822208 H        1 UNL1     0.0937
     32 H         0.0   0.0   0.0 H        1 UNL1     0.0671
     33 H         -1.865699   -1.205346   -1.407663 H        1 UNL1     0.0649
     34 H         -3.83799   -1.847241   0.068898 H        1 UNL1     0.0683
     35 H         -3.189193   -2.944368   2.164041 H        1 UNL1     0.1085
     36 H         -4.813059   -2.967077   3.448684 H        1 UNL1     0.0691
     37 H         -2.778168   0.694361   4.489495 H        1 UNL1     0.0691
     38 H         -3.323849   -0.99451   9.030703 H        1 UNL1     0.0385
     39 H         -4.886398   -0.586241   9.765752 H        1 UNL1     0.0385
     40 H         -3.664564   1.412243   8.826322 H        1 UNL1     0.0789
     41 H         -5.354179   1.935891   5.935196 H        1 UNL1     0.0623
     42 H         -7.492188   3.136597   5.712924 H        1 UNL1     0.0654
     43 H         -8.380037   2.343595   9.83994 H        1 UNL1     0.0654
     44 H         -6.293568   1.121047   10.080728 H        1 UNL1     0.0623
     45 H         -8.988426   4.438711   7.33634 H        1 UNL1     0.2921
     46 H         -5.374836   -3.910062   6.48695 H        1 UNL1     0.2922
     47 H         0.516929   0.365983   2.263843 H        1 UNL1     0.2126
     48 H         1.202434   -1.887895   -0.283862 H        1 UNL1     0.2101
     49 H         -2.022977   0.930507   -0.901687 H        1 UNL1     0.2100
     50 H         -2.672675   -3.341428   -1.14733 H        1 UNL1     0.2102
@<TRIPOS>BOND
     1     1     2    1
     2     1     6    1
     3     2     3    1
     4     3     4    1
     5     3    29    1
     6     3    33    1
     7     4     5    1
     8     5     6    1
     9     5     7    1
    10     5    35    1
    11     7     8    1
    12     8     9   ar
    13     8    13   ar
    14     9    10   ar
    15     9    36    1
    16    10    11   ar
    17    10    26    1
    18    11    12   ar
    19    11    14    1
    20    12    13   ar
    21    12    17    1
    22    13    37    1
    23    14    15    1
    24    14    25    2
    25    15    16    1
    26    15    38    1
    27    15    39    1
    28    16    17    1
    29    16    18    1
    30    16    40    1
    31    18    19   ar
    32    18    23   ar
    33    19    20   ar
    34    19    41    1
    35    20    21   ar
    36    20    42    1
    37    21    22   ar
    38    21    24    1
    39    22    23   ar
    40    22    43    1
    41    23    44    1
    42    24    45    1
    43    26    46    1
    44    27    47    1
    45    28    48    1
    46    29    49    1
    47    30    50    1
    48     1    31    1
    49     1    27    1
    50     2    32    1
    51     2    28    1
    52     4    34    1
    53     4    30    1
