@<TRIPOS>MOLECULE
*****
 50 53 0 0 0
SMALL
GASTEIGER

@<TRIPOS>ATOM
     1 C         -0.297036   1.081571   1.874241 C.3        1 UNL1     0.1889
     2 C         0.131337   -0.17814   1.074513 C.3        1 UNL1     0.1342
     3 C         -0.609368   -1.466896   1.46301 C.3        1 UNL1     0.1174
     4 C         -0.941554   -1.533513   2.95577 C.3        1 UNL1     0.1456
     5 C         -1.549225   -0.221369   3.48433 C.3        1 UNL1     0.2326
     6 O         -0.65974   0.863458   3.229699 O.3        1 UNL1     -0.3076
     7 O         -2.887243   0.021395   3.013061 O.3        1 UNL1     -0.4605
     8 C         -3.360853   1.311467   3.170966 C.ar        1 UNL1     0.1310
     9 C         -4.610355   1.657301   3.696746 C.ar        1 UNL1     0.0226
     10 C         -4.992691   2.997176   3.832601 C.ar        1 UNL1     0.1343
     11 C         -4.124453   4.025212   3.467708 C.ar        1 UNL1     0.1007
     12 C         -2.890305   3.691864   2.903315 C.ar        1 UNL1     0.1389
     13 C         -2.507162   2.344524   2.764366 C.ar        1 UNL1     0.0229
     14 C         -4.443613   5.457823   3.667501 C.2        1 UNL1     0.1740
     15 C         -3.312651   6.414483   3.428178 C.3        1 UNL1     0.0520
     16 C         -2.537392   5.947397   2.203939 C.3        1 UNL1     0.1322
     17 O         -2.003665   4.620893   2.410322 O.3        1 UNL1     -0.4828
     18 C         -3.297348   6.127693   0.887624 C.ar        1 UNL1     -0.0067
     19 C         -2.618494   5.944775   -0.334633 C.ar        1 UNL1     -0.0516
     20 C         -3.271295   6.148073   -1.556305 C.ar        1 UNL1     -0.0198
     21 C         -4.597769   6.54067   -1.569036 C.ar        1 UNL1     0.1169
     22 C         -5.302422   6.696388   -0.382421 C.ar        1 UNL1     -0.0198
     23 C         -4.655011   6.475236   0.839056 C.ar        1 UNL1     -0.0516
     24 O         -5.189628   6.765925   -2.777078 O.3        1 UNL1     -0.5068
     25 O         -5.529551   5.857565   4.079119 O.2        1 UNL1     -0.2917
     26 O         -6.225359   3.267158   4.351467 O.3        1 UNL1     -0.5058
     27 O         -1.253726   1.882025   1.198368 O.3        1 UNL1     -0.3648
     28 O         1.534856   -0.406131   1.300039 O.3        1 UNL1     -0.3841
     29 O         -1.755029   -1.663483   0.631778 O.3        1 UNL1     -0.3863
     30 O         0.264625   -1.818142   3.697261 O.3        1 UNL1     -0.3829
     31 H         0.588418   1.722578   1.946077 H        1 UNL1     0.0937
     32 H         0.0   0.0   0.0 H        1 UNL1     0.0671
     33 H         0.056365   -2.314278   1.247456 H        1 UNL1     0.0649
     34 H         -1.637703   -2.35752   3.147577 H        1 UNL1     0.0683
     35 H         -1.577338   -0.362195   4.572106 H        1 UNL1     0.1085
     36 H         -5.307881   0.90602   4.050519 H        1 UNL1     0.0691
     37 H         -1.541465   2.111428   2.320983 H        1 UNL1     0.0691
     38 H         -2.679801   6.409399   4.322047 H        1 UNL1     0.0385
     39 H         -3.717479   7.424349   3.301438 H        1 UNL1     0.0385
     40 H         -1.650596   6.589814   2.117845 H        1 UNL1     0.0789
     41 H         -1.574489   5.645734   -0.35135 H        1 UNL1     0.0623
     42 H         -2.733639   6.015362   -2.491894 H        1 UNL1     0.0654
     43 H         -6.345645   6.988954   -0.381226 H        1 UNL1     0.0654
     44 H         -5.239003   6.595829   1.746391 H        1 UNL1     0.0623
     45 H         -5.880797   7.437619   -2.659482 H        1 UNL1     0.2921
     46 H         -6.818815   3.557873   3.64104 H        1 UNL1     0.2922
     47 H         -0.869069   2.738575   0.965517 H        1 UNL1     0.2126
     48 H         1.62333   -0.715554   2.222082 H        1 UNL1     0.2101
     49 H         -1.666711   -2.495069   0.139376 H        1 UNL1     0.2100
     50 H         0.941145   -2.133716   3.062875 H        1 UNL1     0.2102
@<TRIPOS>BOND
     1     1     2    1
     2     1     6    1
     3     2     3    1
     4     3     4    1
     5     3    29    1
     6     3    33    1
     7     4     5    1
     8     5     6    1
     9     5     7    1
    10     5    35    1
    11     7     8    1
    12     8     9   ar
    13     8    13   ar
    14     9    10   ar
    15     9    36    1
    16    10    11   ar
    17    10    26    1
    18    11    12   ar
    19    11    14    1
    20    12    13   ar
    21    12    17    1
    22    13    37    1
    23    14    15    1
    24    14    25    2
    25    15    16    1
    26    15    38    1
    27    15    39    1
    28    16    17    1
    29    16    18    1
    30    16    40    1
    31    18    19   ar
    32    18    23   ar
    33    19    20   ar
    34    19    41    1
    35    20    21   ar
    36    20    42    1
    37    21    22   ar
    38    21    24    1
    39    22    23   ar
    40    22    43    1
    41    23    44    1
    42    24    45    1
    43    26    46    1
    44    27    47    1
    45    28    48    1
    46    29    49    1
    47    30    50    1
    48     1    31    1
    49     1    27    1
    50     2    32    1
    51     2    28    1
    52     4    34    1
    53     4    30    1
