@<TRIPOS>MOLECULE
*****
 50 53 0 0 0
SMALL
GASTEIGER

@<TRIPOS>ATOM
     1 C         -1.940723   0.475506   0.882209 C.3        1 UNL1     0.1889
     2 C         -0.399449   0.640019   0.796479 C.3        1 UNL1     0.1342
     3 C         0.351029   0.341032   2.103328 C.3        1 UNL1     0.1174
     4 C         -0.436507   0.756608   3.348398 C.3        1 UNL1     0.1456
     5 C         -1.90646   0.301787   3.296057 C.3        1 UNL1     0.2326
     6 O         -2.534186   0.819907   2.125425 O.3        1 UNL1     -0.3076
     7 O         -2.072185   -1.12009   3.444796 O.3        1 UNL1     -0.4605
     8 C         -0.949763   -1.822658   3.844915 C.ar        1 UNL1     0.1310
     9 C         -0.958778   -3.031772   4.548664 C.ar        1 UNL1     0.0226
     10 C         0.234639   -3.676789   4.894514 C.ar        1 UNL1     0.1343
     11 C         1.466766   -3.139858   4.523827 C.ar        1 UNL1     0.1007
     12 C         1.489744   -1.912168   3.85672 C.ar        1 UNL1     0.1389
     13 C         0.289707   -1.262477   3.511401 C.ar        1 UNL1     0.0229
     14 C         2.754898   -3.821156   4.789729 C.2        1 UNL1     0.1740
     15 C         3.958196   -3.215757   4.128582 C.3        1 UNL1     0.0520
     16 C         3.841501   -1.699975   4.210713 C.3        1 UNL1     0.1322
     17 O         2.647552   -1.240477   3.539581 O.3        1 UNL1     -0.4828
     18 C         4.028851   -1.14324   5.624102 C.ar        1 UNL1     -0.0067
     19 C         2.921332   -0.59945   6.306676 C.ar        1 UNL1     -0.0516
     20 C         3.06748   -0.039132   7.581293 C.ar        1 UNL1     -0.0198
     21 C         4.314442   -0.009967   8.179675 C.ar        1 UNL1     0.1169
     22 C         5.41771   -0.567671   7.546741 C.ar        1 UNL1     -0.0198
     23 C         5.268331   -1.144626   6.279909 C.ar        1 UNL1     -0.0516
     24 O         4.425315   0.577831   9.405482 O.3        1 UNL1     -0.5068
     25 O         2.849074   -4.860072   5.438011 O.2        1 UNL1     -0.2917
     26 O         0.156912   -4.852746   5.582022 O.3        1 UNL1     -0.5058
     27 O         -2.402219   -0.780865   0.411739 O.3        1 UNL1     -0.3648
     28 O         -0.105529   2.002446   0.435774 O.3        1 UNL1     -0.3841
     29 O         0.77259   -1.023766   2.1451 O.3        1 UNL1     -0.3863
     30 O         -0.399914   2.19487   3.473906 O.3        1 UNL1     -0.3829
     31 H         -2.372051   1.200244   0.183074 H        1 UNL1     0.0937
     32 H         0.0   0.0   0.0 H        1 UNL1     0.0671
     33 H         1.27722   0.932543   2.101018 H        1 UNL1     0.0649
     34 H         0.037882   0.344362   4.245844 H        1 UNL1     0.0683
     35 H         -2.369395   0.80371   4.154919 H        1 UNL1     0.1085
     36 H         -1.884739   -3.528567   4.816828 H        1 UNL1     0.0691
     37 H         0.334738   -0.307079   2.993058 H        1 UNL1     0.0691
     38 H         3.969818   -3.555144   3.087329 H        1 UNL1     0.0385
     39 H         4.863355   -3.588576   4.61998 H        1 UNL1     0.0385
     40 H         4.667138   -1.27932   3.620889 H        1 UNL1     0.0789
     41 H         1.933747   -0.601978   5.854659 H        1 UNL1     0.0623
     42 H         2.208068   0.387728   8.092383 H        1 UNL1     0.0654
     43 H         6.395886   -0.563694   8.012645 H        1 UNL1     0.0654
     44 H         6.149558   -1.580515   5.819165 H        1 UNL1     0.0623
     45 H         5.355276   0.538023   9.681714 H        1 UNL1     0.2921
     46 H         0.940168   -4.949944   6.146358 H        1 UNL1     0.2922
     47 H         -3.265326   -0.68249   -0.013971 H        1 UNL1     0.2126
     48 H         0.286802   1.976684   -0.458175 H        1 UNL1     0.2101
     49 H         -0.00203   -1.607763   2.171659 H        1 UNL1     0.2100
     50 H         0.101614   2.551379   2.711618 H        1 UNL1     0.2102
@<TRIPOS>BOND
     1     1     2    1
     2     1     6    1
     3     2     3    1
     4     3     4    1
     5     3    29    1
     6     3    33    1
     7     4     5    1
     8     5     6    1
     9     5     7    1
    10     5    35    1
    11     7     8    1
    12     8     9   ar
    13     8    13   ar
    14     9    10   ar
    15     9    36    1
    16    10    11   ar
    17    10    26    1
    18    11    12   ar
    19    11    14    1
    20    12    13   ar
    21    12    17    1
    22    13    37    1
    23    14    15    1
    24    14    25    2
    25    15    16    1
    26    15    38    1
    27    15    39    1
    28    16    17    1
    29    16    18    1
    30    16    40    1
    31    18    19   ar
    32    18    23   ar
    33    19    20   ar
    34    19    41    1
    35    20    21   ar
    36    20    42    1
    37    21    22   ar
    38    21    24    1
    39    22    23   ar
    40    22    43    1
    41    23    44    1
    42    24    45    1
    43    26    46    1
    44    27    47    1
    45    28    48    1
    46    29    49    1
    47    30    50    1
    48     1    31    1
    49     1    27    1
    50     2    32    1
    51     2    28    1
    52     4    34    1
    53     4    30    1
