@<TRIPOS>MOLECULE
*****
 50 53 0 0 0
SMALL
GASTEIGER

@<TRIPOS>ATOM
     1 C         -0.325054   -1.319352   1.710104 C.3        1 UNL1     0.1889
     2 C         -0.466991   -0.971561   0.203838 C.3        1 UNL1     0.1342
     3 C         -1.91253   -0.951699   -0.316247 C.3        1 UNL1     0.1174
     4 C         -2.799641   -2.002501   0.356036 C.3        1 UNL1     0.1456
     5 C         -2.63419   -2.022746   1.886585 C.3        1 UNL1     0.2326
     6 O         -1.267602   -2.248369   2.224814 O.3        1 UNL1     -0.3076
     7 O         -3.195643   -0.869374   2.539138 O.3        1 UNL1     -0.4605
     8 C         -3.694944   -1.076404   3.812466 C.ar        1 UNL1     0.1310
     9 C         -4.514642   -2.142585   4.198024 C.ar        1 UNL1     0.0226
     10 C         -4.956254   -2.274714   5.519926 C.ar        1 UNL1     0.1343
     11 C         -4.568979   -1.35601   6.494524 C.ar        1 UNL1     0.1007
     12 C         -3.784278   -0.264489   6.112935 C.ar        1 UNL1     0.1389
     13 C         -3.342545   -0.13041   4.783151 C.ar        1 UNL1     0.0229
     14 C         -4.937336   -1.49362   7.922646 C.2        1 UNL1     0.1740
     15 C         -4.253545   -0.545859   8.863777 C.3        1 UNL1     0.0520
     16 C         -4.18157   0.822977   8.201158 C.3        1 UNL1     0.1322
     17 O         -3.434802   0.756274   6.966266 O.3        1 UNL1     -0.4828
     18 C         -5.537467   1.523612   8.085491 C.ar        1 UNL1     -0.0067
     19 C         -5.92441   2.083849   6.850734 C.ar        1 UNL1     -0.0516
     20 C         -7.136511   2.772621   6.722802 C.ar        1 UNL1     -0.0198
     21 C         -7.96518   2.914057   7.821497 C.ar        1 UNL1     0.1169
     22 C         -7.627213   2.344689   9.042331 C.ar        1 UNL1     -0.0198
     23 C         -6.423799   1.640003   9.165891 C.ar        1 UNL1     -0.0516
     24 O         -9.119804   3.623833   7.668323 O.3        1 UNL1     -0.5068
     25 O         -5.687884   -2.368798   8.345998 O.2        1 UNL1     -0.2917
     26 O         -5.754573   -3.336675   5.830586 O.3        1 UNL1     -0.5058
     27 O         -0.204638   -0.178515   2.544836 O.3        1 UNL1     -0.3648
     28 O         0.250129   -1.957789   -0.561537 O.3        1 UNL1     -0.3841
     29 O         -2.460663   0.365842   -0.2403 O.3        1 UNL1     -0.3863
     30 O         -2.465385   -3.307616   -0.164192 O.3        1 UNL1     -0.3829
     31 H         0.633292   -1.838035   1.822442 H        1 UNL1     0.0937
     32 H         0.0   0.0   0.0 H        1 UNL1     0.0671
     33 H         -1.88689   -1.19574   -1.387464 H        1 UNL1     0.0649
     34 H         -3.850881   -1.818295   0.108317 H        1 UNL1     0.0683
     35 H         -3.191921   -2.913727   2.201174 H        1 UNL1     0.1085
     36 H         -4.804583   -2.920315   3.500034 H        1 UNL1     0.0691
     37 H         -2.733449   0.729034   4.511396 H        1 UNL1     0.0691
     38 H         -3.251842   -0.941603   9.062534 H        1 UNL1     0.0385
     39 H         -4.804803   -0.519393   9.809923 H        1 UNL1     0.0385
     40 H         -3.576413   1.466981   8.85351 H        1 UNL1     0.0789
     41 H         -5.287282   1.994438   5.975677 H        1 UNL1     0.0623
     42 H         -7.418162   3.210387   5.768315 H        1 UNL1     0.0654
     43 H         -8.275841   2.436502   9.905328 H        1 UNL1     0.0654
     44 H         -6.196499   1.199151   10.131721 H        1 UNL1     0.0623
     45 H         -8.890408   4.528843   7.401769 H        1 UNL1     0.2921
     46 H         -5.347248   -3.849   6.546841 H        1 UNL1     0.2922
     47 H         0.539364   0.369228   2.257958 H        1 UNL1     0.2126
     48 H         1.185992   -1.896968   -0.289152 H        1 UNL1     0.2101
     49 H         -2.023884   0.942767   -0.886966 H        1 UNL1     0.2100
     50 H         -2.707429   -3.324916   -1.113312 H        1 UNL1     0.2102
@<TRIPOS>BOND
     1     1     2    1
     2     1     6    1
     3     2     3    1
     4     3     4    1
     5     3    29    1
     6     3    33    1
     7     4     5    1
     8     5     6    1
     9     5     7    1
    10     5    35    1
    11     7     8    1
    12     8     9   ar
    13     8    13   ar
    14     9    10   ar
    15     9    36    1
    16    10    11   ar
    17    10    26    1
    18    11    12   ar
    19    11    14    1
    20    12    13   ar
    21    12    17    1
    22    13    37    1
    23    14    15    1
    24    14    25    2
    25    15    16    1
    26    15    38    1
    27    15    39    1
    28    16    17    1
    29    16    18    1
    30    16    40    1
    31    18    19   ar
    32    18    23   ar
    33    19    20   ar
    34    19    41    1
    35    20    21   ar
    36    20    42    1
    37    21    22   ar
    38    21    24    1
    39    22    23   ar
    40    22    43    1
    41    23    44    1
    42    24    45    1
    43    26    46    1
    44    27    47    1
    45    28    48    1
    46    29    49    1
    47    30    50    1
    48     1    31    1
    49     1    27    1
    50     2    32    1
    51     2    28    1
    52     4    34    1
    53     4    30    1
