@<TRIPOS>MOLECULE
*****
 50 53 0 0 0
SMALL
GASTEIGER

@<TRIPOS>ATOM
     1 C         -1.215505   -0.324293   1.785549 C.3        1 UNL1     0.1889
     2 C         0.114564   -0.448366   0.994688 C.3        1 UNL1     0.1342
     3 C         0.63682   -1.884919   0.839674 C.3        1 UNL1     0.1174
     4 C         0.339609   -2.759429   2.060336 C.3        1 UNL1     0.1456
     5 C         -1.11449   -2.61965   2.546567 C.3        1 UNL1     0.2326
     6 O         -1.398808   -1.254279   2.842867 O.3        1 UNL1     -0.3076
     7 O         -2.075934   -3.218   1.658354 O.3        1 UNL1     -0.4605
     8 C         -3.233981   -2.493184   1.441333 C.ar        1 UNL1     0.1310
     9 C         -4.431432   -2.64825   2.147991 C.ar        1 UNL1     0.0226
     10 C         -5.547424   -1.851949   1.864495 C.ar        1 UNL1     0.1343
     11 C         -5.485505   -0.864069   0.882609 C.ar        1 UNL1     0.1007
     12 C         -4.308219   -0.727465   0.142259 C.ar        1 UNL1     0.1389
     13 C         -3.187083   -1.530051   0.425708 C.ar        1 UNL1     0.0229
     14 C         -6.606978   0.061263   0.59939 C.2        1 UNL1     0.1740
     15 C         -6.291739   1.199342   -0.326326 C.3        1 UNL1     0.0520
     16 C         -5.404401   0.676676   -1.447669 C.3        1 UNL1     0.1322
     17 O         -4.172839   0.13808   -0.918293 O.3        1 UNL1     -0.4828
     18 C         -6.130772   -0.246851   -2.42859 C.ar        1 UNL1     -0.0067
     19 C         -6.377326   0.196634   -3.744168 C.ar        1 UNL1     -0.0516
     20 C         -7.080609   -0.603956   -4.652139 C.ar        1 UNL1     -0.0198
     21 C         -7.547906   -1.844141   -4.255396 C.ar        1 UNL1     0.1169
     22 C         -7.291865   -2.322415   -2.976906 C.ar        1 UNL1     -0.0198
     23 C         -6.572621   -1.529725   -2.074472 C.ar        1 UNL1     -0.0516
     24 O         -8.261578   -2.579857   -5.155282 O.3        1 UNL1     -0.5068
     25 O         -7.708354   -0.027099   1.135718 O.2        1 UNL1     -0.2917
     26 O         -6.685513   -2.054231   2.589354 O.3        1 UNL1     -0.5058
     27 O         -2.362238   -0.243866   0.954092 O.3        1 UNL1     -0.3648
     28 O         1.12855   0.303741   1.686696 O.3        1 UNL1     -0.3841
     29 O         0.173459   -2.463838   -0.381916 O.3        1 UNL1     -0.3863
     30 O         1.22689   -2.387016   3.137245 O.3        1 UNL1     -0.3829
     31 H         -1.185615   0.643454   2.298045 H        1 UNL1     0.0937
     32 H         0.0   0.0   -0.0 H        1 UNL1     0.0671
     33 H         1.73039   -1.835546   0.742785 H        1 UNL1     0.0649
     34 H         0.543199   -3.810184   1.826102 H        1 UNL1     0.0683
     35 H         -1.127912   -3.162423   3.500033 H        1 UNL1     0.1085
     36 H         -4.525885   -3.36017   2.960621 H        1 UNL1     0.0691
     37 H         -2.282742   -1.404783   -0.165873 H        1 UNL1     0.0691
     38 H         -5.776953   1.969091   0.25849 H        1 UNL1     0.0385
     39 H         -7.227833   1.625171   -0.703388 H        1 UNL1     0.0385
     40 H         -5.090805   1.544512   -2.04352 H        1 UNL1     0.0789
     41 H         -6.028915   1.169959   -4.077182 H        1 UNL1     0.0623
     42 H         -7.274696   -0.24582   -5.660147 H        1 UNL1     0.0654
     43 H         -7.640179   -3.29837   -2.660522 H        1 UNL1     0.0654
     44 H         -6.38168   -1.93934   -1.087253 H        1 UNL1     0.0623
     45 H         -9.089196   -2.110087   -5.347846 H        1 UNL1     0.2921
     46 H         -7.356923   -2.472407   2.02744 H        1 UNL1     0.2922
     47 H         -3.131903   0.032292   1.471018 H        1 UNL1     0.2126
     48 H         1.28458   1.112097   1.161389 H        1 UNL1     0.2101
     49 H         0.850767   -3.057312   -0.743628 H        1 UNL1     0.2100
     50 H         1.364522   -3.176216   3.701101 H        1 UNL1     0.2102
@<TRIPOS>BOND
     1     1     2    1
     2     1     6    1
     3     2     3    1
     4     3     4    1
     5     3    29    1
     6     3    33    1
     7     4     5    1
     8     5     6    1
     9     5     7    1
    10     5    35    1
    11     7     8    1
    12     8     9   ar
    13     8    13   ar
    14     9    10   ar
    15     9    36    1
    16    10    11   ar
    17    10    26    1
    18    11    12   ar
    19    11    14    1
    20    12    13   ar
    21    12    17    1
    22    13    37    1
    23    14    15    1
    24    14    25    2
    25    15    16    1
    26    15    38    1
    27    15    39    1
    28    16    17    1
    29    16    18    1
    30    16    40    1
    31    18    19   ar
    32    18    23   ar
    33    19    20   ar
    34    19    41    1
    35    20    21   ar
    36    20    42    1
    37    21    22   ar
    38    21    24    1
    39    22    23   ar
    40    22    43    1
    41    23    44    1
    42    24    45    1
    43    26    46    1
    44    27    47    1
    45    28    48    1
    46    29    49    1
    47    30    50    1
    48     1    31    1
    49     1    27    1
    50     2    32    1
    51     2    28    1
    52     4    34    1
    53     4    30    1
