@<TRIPOS>MOLECULE
*****
 50 53 0 0 0
SMALL
GASTEIGER

@<TRIPOS>ATOM
     1 C         0.789502   -1.67474   -1.158765 C.3        1 UNL1     0.1889
     2 C         -0.388539   -0.831447   -0.601078 C.3        1 UNL1     0.1342
     3 C         -1.404089   -1.623605   0.236543 C.3        1 UNL1     0.1174
     4 C         -1.60514   -3.053658   -0.271044 C.3        1 UNL1     0.1456
     5 C         -0.273594   -3.767271   -0.56787 C.3        1 UNL1     0.2326
     6 O         0.480878   -3.014289   -1.51479 O.3        1 UNL1     -0.3076
     7 O         0.474635   -4.100107   0.61564 O.3        1 UNL1     -0.4605
     8 C         1.24097   -5.249576   0.545076 C.ar        1 UNL1     0.1310
     9 C         0.813746   -6.477934   0.029404 C.ar        1 UNL1     0.0226
     10 C         1.672665   -7.58258   -0.014389 C.ar        1 UNL1     0.1343
     11 C         2.988397   -7.47891   0.43499 C.ar        1 UNL1     0.1007
     12 C         3.414021   -6.269061   0.989872 C.ar        1 UNL1     0.1389
     13 C         2.54938   -5.159251   1.036223 C.ar        1 UNL1     0.0229
     14 C         3.963415   -8.589534   0.334945 C.2        1 UNL1     0.1740
     15 C         5.385599   -8.235995   0.657361 C.3        1 UNL1     0.0520
     16 C         5.388712   -7.295599   1.854693 C.3        1 UNL1     0.1322
     17 O         4.652683   -6.087896   1.560103 O.3        1 UNL1     -0.4828
     18 C         4.997026   -7.972158   3.170586 C.ar        1 UNL1     -0.0067
     19 C         5.970901   -8.149734   4.174702 C.ar        1 UNL1     -0.0516
     20 C         5.658005   -8.806767   5.370681 C.ar        1 UNL1     -0.0198
     21 C         4.379687   -9.296209   5.571128 C.ar        1 UNL1     0.1169
     22 C         3.390234   -9.107311   4.615022 C.ar        1 UNL1     -0.0198
     23 C         3.698015   -8.434068   3.426716 C.ar        1 UNL1     -0.0516
     24 O         4.122041   -9.963913   6.732244 O.3        1 UNL1     -0.5068
     25 O         3.6688   -9.71427   -0.060854 O.2        1 UNL1     -0.2917
     26 O         1.19402   -8.752305   -0.528418 O.3        1 UNL1     -0.5058
     27 O         1.963114   -1.600889   -0.36506 O.3        1 UNL1     -0.3648
     28 O         -1.103727   -0.257056   -1.710712 O.3        1 UNL1     -0.3841
     29 O         -1.06744   -1.571133   1.624364 O.3        1 UNL1     -0.3863
     30 O         -2.393635   -3.020585   -1.480536 O.3        1 UNL1     -0.3829
     31 H         1.078717   -1.216852   -2.111011 H        1 UNL1     0.0937
     32 H         0.0   0.0   0.0 H        1 UNL1     0.0671
     33 H         -2.375731   -1.117053   0.152655 H        1 UNL1     0.0649
     34 H         -2.171139   -3.635568   0.464772 H        1 UNL1     0.0683
     35 H         -0.576785   -4.695841   -1.067581 H        1 UNL1     0.1085
     36 H         -0.179354   -6.607295   -0.386696 H        1 UNL1     0.0691
     37 H         2.904591   -4.228913   1.47416 H        1 UNL1     0.0691
     38 H         5.814978   -7.751827   -0.226235 H        1 UNL1     0.0385
     39 H         5.948825   -9.155191   0.851353 H        1 UNL1     0.0385
     40 H         6.424025   -6.957984   1.998443 H        1 UNL1     0.0789
     41 H         6.983938   -7.782803   4.037711 H        1 UNL1     0.0623
     42 H         6.420851   -8.947962   6.132351 H        1 UNL1     0.0654
     43 H         2.382004   -9.473293   4.76812 H        1 UNL1     0.0654
     44 H         2.897806   -8.29504   2.706174 H        1 UNL1     0.0623
     45 H         3.674452   -9.355964   7.3428 H        1 UNL1     0.2921
     46 H         1.889838   -9.186636   -1.04669 H        1 UNL1     0.2922
     47 H         2.655678   -1.11644   -0.835724 H        1 UNL1     0.2126
     48 H         -2.054624   -0.345467   -1.506481 H        1 UNL1     0.2101
     49 H         -0.590177   -2.376887   1.878869 H        1 UNL1     0.2100
     50 H         -1.786841   -3.144852   -2.23953 H        1 UNL1     0.2102
@<TRIPOS>BOND
     1     1     2    1
     2     1     6    1
     3     2     3    1
     4     3     4    1
     5     3    29    1
     6     3    33    1
     7     4     5    1
     8     5     6    1
     9     5     7    1
    10     5    35    1
    11     7     8    1
    12     8     9   ar
    13     8    13   ar
    14     9    10   ar
    15     9    36    1
    16    10    11   ar
    17    10    26    1
    18    11    12   ar
    19    11    14    1
    20    12    13   ar
    21    12    17    1
    22    13    37    1
    23    14    15    1
    24    14    25    2
    25    15    16    1
    26    15    38    1
    27    15    39    1
    28    16    17    1
    29    16    18    1
    30    16    40    1
    31    18    19   ar
    32    18    23   ar
    33    19    20   ar
    34    19    41    1
    35    20    21   ar
    36    20    42    1
    37    21    22   ar
    38    21    24    1
    39    22    23   ar
    40    22    43    1
    41    23    44    1
    42    24    45    1
    43    26    46    1
    44    27    47    1
    45    28    48    1
    46    29    49    1
    47    30    50    1
    48     1    31    1
    49     1    27    1
    50     2    32    1
    51     2    28    1
    52     4    34    1
    53     4    30    1
