@<TRIPOS>MOLECULE
*****
 50 53 0 0 0
SMALL
GASTEIGER

@<TRIPOS>ATOM
     1 C         0.005987   1.928437   1.025622 C.3        1 UNL1     0.1889
     2 C         0.590617   0.924509   -0.004075 C.3        1 UNL1     0.1342
     3 C         2.071009   0.57435   0.211082 C.3        1 UNL1     0.1174
     4 C         2.889128   1.754645   0.740896 C.3        1 UNL1     0.1456
     5 C         2.191906   2.480358   1.906051 C.3        1 UNL1     0.2326
     6 O         0.900124   2.925192   1.498266 O.3        1 UNL1     -0.3076
     7 O         2.168392   1.716163   3.125385 O.3        1 UNL1     -0.4605
     8 C         3.263429   1.867604   3.956942 C.ar        1 UNL1     0.1310
     9 C         3.217406   2.299093   5.286979 C.ar        1 UNL1     0.0226
     10 C         4.383475   2.404084   6.054548 C.ar        1 UNL1     0.1343
     11 C         5.622372   2.057013   5.517411 C.ar        1 UNL1     0.1007
     12 C         5.686045   1.664013   4.177903 C.ar        1 UNL1     0.1389
     13 C         4.513749   1.561058   3.405536 C.ar        1 UNL1     0.0229
     14 C         6.874818   2.068851   6.308228 C.2        1 UNL1     0.1740
     15 C         8.070303   1.455557   5.64022 C.3        1 UNL1     0.0520
     16 C         8.065313   1.864435   4.173676 C.3        1 UNL1     0.1322
     17 O         6.863958   1.40349   3.516907 O.3        1 UNL1     -0.4828
     18 C         8.385424   3.343662   3.945328 C.ar        1 UNL1     -0.0067
     19 C         7.916974   3.98147   2.778294 C.ar        1 UNL1     -0.0516
     20 C         8.231682   5.320109   2.515677 C.ar        1 UNL1     -0.0198
     21 C         9.018361   6.028061   3.406613 C.ar        1 UNL1     0.1169
     22 C         9.466726   5.43737   4.580876 C.ar        1 UNL1     -0.0198
     23 C         9.136783   4.104223   4.852743 C.ar        1 UNL1     -0.0516
     24 O         9.335689   7.318395   3.098812 O.3        1 UNL1     -0.5068
     25 O         6.939642   2.473875   7.465915 O.2        1 UNL1     -0.2917
     26 O         4.270283   2.832267   7.345064 O.3        1 UNL1     -0.5058
     27 O         -0.692187   1.303476   2.090875 O.3        1 UNL1     -0.3648
     28 O         0.473063   1.499247   -1.318824 O.3        1 UNL1     -0.3841
     29 O         2.202747   -0.597227   1.018662 O.3        1 UNL1     -0.3863
     30 O         3.106955   2.698763   -0.330031 O.3        1 UNL1     -0.3829
     31 H         -0.763707   2.503599   0.499468 H        1 UNL1     0.0937
     32 H         0.0   -0.0   0.0 H        1 UNL1     0.0671
     33 H         2.49726   0.305063   -0.765399 H        1 UNL1     0.0649
     34 H         3.875626   1.408679   1.068813 H        1 UNL1     0.0683
     35 H         2.803529   3.377729   2.062646 H        1 UNL1     0.1085
     36 H         2.279157   2.530118   5.779359 H        1 UNL1     0.0691
     37 H         4.590377   1.253822   2.364753 H        1 UNL1     0.0691
     38 H         7.98835   0.368679   5.747492 H        1 UNL1     0.0385
     39 H         8.978204   1.7829   6.158236 H        1 UNL1     0.0385
     40 H         8.876819   1.312066   3.680862 H        1 UNL1     0.0789
     41 H         7.30544   3.444809   2.058801 H        1 UNL1     0.0623
     42 H         7.874375   5.797226   1.606445 H        1 UNL1     0.0654
     43 H         10.070834   5.987086   5.292758 H        1 UNL1     0.0654
     44 H         9.495224   3.677841   5.78471 H        1 UNL1     0.0623
     45 H         10.167628   7.318577   2.598218 H        1 UNL1     0.2921
     46 H         3.84974   2.140421   7.879765 H        1 UNL1     0.2922
     47 H         -0.330354   1.588964   2.941424 H        1 UNL1     0.2126
     48 H         0.334457   0.756389   -1.937437 H        1 UNL1     0.2101
     49 H         1.474461   -0.640537   1.658597 H        1 UNL1     0.2100
     50 H         3.203779   2.192586   -1.163171 H        1 UNL1     0.2102
@<TRIPOS>BOND
     1     1     2    1
     2     1     6    1
     3     2     3    1
     4     3     4    1
     5     3    29    1
     6     3    33    1
     7     4     5    1
     8     5     6    1
     9     5     7    1
    10     5    35    1
    11     7     8    1
    12     8     9   ar
    13     8    13   ar
    14     9    10   ar
    15     9    36    1
    16    10    11   ar
    17    10    26    1
    18    11    12   ar
    19    11    14    1
    20    12    13   ar
    21    12    17    1
    22    13    37    1
    23    14    15    1
    24    14    25    2
    25    15    16    1
    26    15    38    1
    27    15    39    1
    28    16    17    1
    29    16    18    1
    30    16    40    1
    31    18    19   ar
    32    18    23   ar
    33    19    20   ar
    34    19    41    1
    35    20    21   ar
    36    20    42    1
    37    21    22   ar
    38    21    24    1
    39    22    23   ar
    40    22    43    1
    41    23    44    1
    42    24    45    1
    43    26    46    1
    44    27    47    1
    45    28    48    1
    46    29    49    1
    47    30    50    1
    48     1    31    1
    49     1    27    1
    50     2    32    1
    51     2    28    1
    52     4    34    1
    53     4    30    1
