@<TRIPOS>MOLECULE
*****
 50 53 0 0 0
SMALL
GASTEIGER

@<TRIPOS>ATOM
     1 C         -0.334368   -1.330622   1.699544 C.3        1 UNL1     0.1889
     2 C         -0.464   -0.975003   0.193997 C.3        1 UNL1     0.1342
     3 C         -1.904711   -0.959353   -0.339458 C.3        1 UNL1     0.1174
     4 C         -2.792777   -2.018332   0.318583 C.3        1 UNL1     0.1456
     5 C         -2.641498   -2.046435   1.850473 C.3        1 UNL1     0.2326
     6 O         -1.277009   -2.267201   2.200187 O.3        1 UNL1     -0.3076
     7 O         -3.214776   -0.899578   2.504226 O.3        1 UNL1     -0.4605
     8 C         -3.725304   -1.116401   3.771457 C.ar        1 UNL1     0.1310
     9 C         -4.543512   -2.188712   4.14292 C.ar        1 UNL1     0.0226
     10 C         -4.997184   -2.330644   5.459712 C.ar        1 UNL1     0.1343
     11 C         -4.623755   -1.415789   6.443293 C.ar        1 UNL1     0.1007
     12 C         -3.840702   -0.318328   6.075607 C.ar        1 UNL1     0.1389
     13 C         -3.386842   -0.174401   4.750946 C.ar        1 UNL1     0.0229
     14 C         -5.005172   -1.563469   7.866973 C.2        1 UNL1     0.1740
     15 C         -4.335062   -0.617947   8.820119 C.3        1 UNL1     0.0520
     16 C         -4.26333   0.755052   8.166143 C.3        1 UNL1     0.1322
     17 O         -3.504395   0.699109   6.938153 O.3        1 UNL1     -0.4828
     18 C         -5.621422   1.449862   8.041439 C.ar        1 UNL1     -0.0067
     19 C         -5.997981   2.017872   6.807024 C.ar        1 UNL1     -0.0516
     20 C         -7.212096   2.701628   6.671504 C.ar        1 UNL1     -0.0198
     21 C         -8.053141   2.830319   7.762333 C.ar        1 UNL1     0.1169
     22 C         -7.72536   2.253045   8.982232 C.ar        1 UNL1     -0.0198
     23 C         -6.519804   1.553368   9.113162 C.ar        1 UNL1     -0.0516
     24 O         -9.20962   3.535559   7.602353 O.3        1 UNL1     -0.5068
     25 O         -5.755521   -2.444673   8.277998 O.2        1 UNL1     -0.2917
     26 O         -5.793314   -3.398198   5.756512 O.3        1 UNL1     -0.5058
     27 O         -0.22745   -0.193954   2.541767 O.3        1 UNL1     -0.3648
     28 O         0.26515   -1.95331   -0.570176 O.3        1 UNL1     -0.3841
     29 O         -2.460117   0.355005   -0.26123 O.3        1 UNL1     -0.3863
     30 O         -2.447157   -3.318804   -0.20583 O.3        1 UNL1     -0.3829
     31 H         0.625474   -1.84518   1.817916 H        1 UNL1     0.0937
     32 H         0.0   0.0   0.0 H        1 UNL1     0.0671
     33 H         -1.867868   -1.197186   -1.411745 H        1 UNL1     0.0649
     34 H         -3.842571   -1.837935   0.062087 H        1 UNL1     0.0683
     35 H         -3.197669   -2.941939   2.154819 H        1 UNL1     0.1085
     36 H         -4.822957   -2.963743   3.437684 H        1 UNL1     0.0691
     37 H         -2.77932   0.689511   4.490052 H        1 UNL1     0.0691
     38 H         -3.333417   -1.01005   9.026249 H        1 UNL1     0.0385
     39 H         -4.895524   -0.599623   9.761036 H        1 UNL1     0.0385
     40 H         -3.667601   1.398132   8.828015 H        1 UNL1     0.0789
     41 H         -5.351111   1.938498   5.938168 H        1 UNL1     0.0623
     42 H         -7.485745   3.145489   5.717505 H        1 UNL1     0.0654
     43 H         -8.383612   2.334859   9.838924 H        1 UNL1     0.0654
     44 H         -6.300608   1.106063   10.077898 H        1 UNL1     0.0623
     45 H         -8.981947   4.443761   7.345348 H        1 UNL1     0.2921
     46 H         -5.390517   -3.912634   6.473813 H        1 UNL1     0.2922
     47 H         0.516442   0.359086   2.264942 H        1 UNL1     0.2126
     48 H         1.198118   -1.8894   -0.288717 H        1 UNL1     0.2101
     49 H         -2.020344   0.937701   -0.900651 H        1 UNL1     0.2100
     50 H         -2.680255   -3.331921   -1.157254 H        1 UNL1     0.2102
@<TRIPOS>BOND
     1     1     2    1
     2     1     6    1
     3     2     3    1
     4     3     4    1
     5     3    29    1
     6     3    33    1
     7     4     5    1
     8     5     6    1
     9     5     7    1
    10     5    35    1
    11     7     8    1
    12     8     9   ar
    13     8    13   ar
    14     9    10   ar
    15     9    36    1
    16    10    11   ar
    17    10    26    1
    18    11    12   ar
    19    11    14    1
    20    12    13   ar
    21    12    17    1
    22    13    37    1
    23    14    15    1
    24    14    25    2
    25    15    16    1
    26    15    38    1
    27    15    39    1
    28    16    17    1
    29    16    18    1
    30    16    40    1
    31    18    19   ar
    32    18    23   ar
    33    19    20   ar
    34    19    41    1
    35    20    21   ar
    36    20    42    1
    37    21    22   ar
    38    21    24    1
    39    22    23   ar
    40    22    43    1
    41    23    44    1
    42    24    45    1
    43    26    46    1
    44    27    47    1
    45    28    48    1
    46    29    49    1
    47    30    50    1
    48     1    31    1
    49     1    27    1
    50     2    32    1
    51     2    28    1
    52     4    34    1
    53     4    30    1
