@<TRIPOS>MOLECULE
*****
 50 53 0 0 0
SMALL
GASTEIGER

@<TRIPOS>ATOM
     1 C         1.743027   -0.990535   0.866893 C.3        1 UNL1     0.1889
     2 C         0.212637   -0.746809   0.774999 C.3        1 UNL1     0.1342
     3 C         -0.446513   -0.305263   2.090682 C.3        1 UNL1     0.1174
     4 C         0.195038   -0.950412   3.321662 C.3        1 UNL1     0.1456
     5 C         1.733057   -0.891012   3.285159 C.3        1 UNL1     0.2326
     6 O         2.215614   -1.516584   2.098286 O.3        1 UNL1     -0.3076
     7 O         2.260349   0.433715   3.481075 O.3        1 UNL1     -0.4605
     8 C         2.88072   1.007363   2.385815 C.ar        1 UNL1     0.1310
     9 C         4.243203   0.91035   2.083278 C.ar        1 UNL1     0.0226
     10 C         4.774989   1.514324   0.937712 C.ar        1 UNL1     0.1343
     11 C         3.952107   2.210592   0.053451 C.ar        1 UNL1     0.1007
     12 C         2.597199   2.349084   0.366224 C.ar        1 UNL1     0.1389
     13 C         2.063216   1.743938   1.51952 C.ar        1 UNL1     0.0229
     14 C         4.445784   2.796666   -1.214206 C.2        1 UNL1     0.1740
     15 C         3.388783   3.311872   -2.146333 C.3        1 UNL1     0.0520
     16 C         2.320143   4.015509   -1.32119 C.3        1 UNL1     0.1322
     17 O         1.718464   3.103216   -0.376323 O.3        1 UNL1     -0.4828
     18 C         2.783977   5.342134   -0.71485 C.ar        1 UNL1     -0.0067
     19 C         3.188506   5.382617   0.63531 C.ar        1 UNL1     -0.0516
     20 C         3.573208   6.588209   1.234072 C.ar        1 UNL1     -0.0198
     21 C         3.550726   7.758762   0.497102 C.ar        1 UNL1     0.1169
     22 C         3.189232   7.745443   -0.843787 C.ar        1 UNL1     -0.0198
     23 C         2.822172   6.536967   -1.447864 C.ar        1 UNL1     -0.0516
     24 O         3.895744   8.919725   1.12442 O.3        1 UNL1     -0.5068
     25 O         5.629563   2.800364   -1.541526 O.2        1 UNL1     -0.2917
     26 O         6.112207   1.383153   0.700593 O.3        1 UNL1     -0.5058
     27 O         2.518683   0.117483   0.438594 O.3        1 UNL1     -0.3648
     28 O         -0.421128   -1.974136   0.369143 O.3        1 UNL1     -0.3841
     29 O         -0.500232   1.120117   2.17751 O.3        1 UNL1     -0.3863
     30 O         -0.214279   -2.333204   3.39936 O.3        1 UNL1     -0.3829
     31 H         1.978066   -1.77965   0.144305 H        1 UNL1     0.0937
     32 H         0.0   0.0   0.0 H        1 UNL1     0.0671
     33 H         -1.494319   -0.635902   2.068296 H        1 UNL1     0.0649
     34 H         -0.164396   -0.458089   4.232061 H        1 UNL1     0.0683
     35 H         2.042239   -1.522984   4.127119 H        1 UNL1     0.1085
     36 H         4.924983   0.336108   2.700969 H        1 UNL1     0.0691
     37 H         1.005346   1.867571   1.741146 H        1 UNL1     0.0691
     38 H         2.971935   2.452257   -2.681895 H        1 UNL1     0.0385
     39 H         3.852107   3.980176   -2.880144 H        1 UNL1     0.0385
     40 H         1.503295   4.279112   -2.006605 H        1 UNL1     0.0789
     41 H         3.206057   4.479038   1.237712 H        1 UNL1     0.0623
     42 H         3.871727   6.608397   2.279295 H        1 UNL1     0.0654
     43 H         3.182545   8.653847   -1.434267 H        1 UNL1     0.0654
     44 H         2.555625   6.561733   -2.500092 H        1 UNL1     0.0623
     45 H         4.072776   8.722695   2.058526 H        1 UNL1     0.2921
     46 H         6.579443   1.260213   1.542013 H        1 UNL1     0.2922
     47 H         1.942898   0.8234   0.112998 H        1 UNL1     0.2126
     48 H         -1.157398   -2.127997   0.992011 H        1 UNL1     0.2101
     49 H         0.362642   1.497734   1.943742 H        1 UNL1     0.2100
     50 H         -1.170459   -2.353138   3.611574 H        1 UNL1     0.2102
@<TRIPOS>BOND
     1     1     2    1
     2     1     6    1
     3     2     3    1
     4     3     4    1
     5     3    29    1
     6     3    33    1
     7     4     5    1
     8     5     6    1
     9     5     7    1
    10     5    35    1
    11     7     8    1
    12     8     9   ar
    13     8    13   ar
    14     9    10   ar
    15     9    36    1
    16    10    11   ar
    17    10    26    1
    18    11    12   ar
    19    11    14    1
    20    12    13   ar
    21    12    17    1
    22    13    37    1
    23    14    15    1
    24    14    25    2
    25    15    16    1
    26    15    38    1
    27    15    39    1
    28    16    17    1
    29    16    18    1
    30    16    40    1
    31    18    19   ar
    32    18    23   ar
    33    19    20   ar
    34    19    41    1
    35    20    21   ar
    36    20    42    1
    37    21    22   ar
    38    21    24    1
    39    22    23   ar
    40    22    43    1
    41    23    44    1
    42    24    45    1
    43    26    46    1
    44    27    47    1
    45    28    48    1
    46    29    49    1
    47    30    50    1
    48     1    31    1
    49     1    27    1
    50     2    32    1
    51     2    28    1
    52     4    34    1
    53     4    30    1
