@<TRIPOS>MOLECULE
*****
 50 53 0 0 0
SMALL
GASTEIGER

@<TRIPOS>ATOM
     1 C         -0.015155   -1.119704   1.875324 C.3        1 UNL1     0.1889
     2 C         -0.272925   -1.003672   0.34888 C.3        1 UNL1     0.1342
     3 C         -1.715367   -1.309258   -0.082914 C.3        1 UNL1     0.1174
     4 C         -2.369494   -2.403221   0.764718 C.3        1 UNL1     0.1456
     5 C         -2.147905   -2.19243   2.273635 C.3        1 UNL1     0.2326
     6 O         -0.751803   -2.12544   2.555204 O.3        1 UNL1     -0.3076
     7 O         -2.887669   -1.081442   2.811942 O.3        1 UNL1     -0.4605
     8 C         -3.301001   -1.208042   4.125965 C.ar        1 UNL1     0.1310
     9 C         -3.902025   -2.343133   4.680617 C.ar        1 UNL1     0.0226
     10 C         -4.270649   -2.380286   6.030668 C.ar        1 UNL1     0.1343
     11 C         -4.025238   -1.29082   6.865341 C.ar        1 UNL1     0.1007
     12 C         -3.46307   -0.13662   6.31346 C.ar        1 UNL1     0.1389
     13 C         -3.094927   -0.098552   4.955353 C.ar        1 UNL1     0.0229
     14 C         -4.317514   -1.306881   8.317398 C.2        1 UNL1     0.1740
     15 C         -3.78692   -0.141355   9.099426 C.3        1 UNL1     0.0520
     16 C         -3.984343   1.122622   8.273991 C.3        1 UNL1     0.1322
     17 O         -3.277075   1.03032   7.017678 O.3        1 UNL1     -0.4828
     18 C         -5.447471   1.554044   8.148062 C.ar        1 UNL1     -0.0067
     19 C         -5.963133   1.892062   6.879973 C.ar        1 UNL1     -0.0516
     20 C         -7.283087   2.335965   6.736327 C.ar        1 UNL1     -0.0198
     21 C         -8.093392   2.45291   7.851476 C.ar        1 UNL1     0.1169
     22 C         -7.624598   2.095697   9.109041 C.ar        1 UNL1     -0.0198
     23 C         -6.310416   1.634199   9.250467 C.ar        1 UNL1     -0.0516
     24 O         -9.361342   2.924645   7.677782 O.3        1 UNL1     -0.5068
     25 O         -4.88388   -2.238563   8.882804 O.2        1 UNL1     -0.2917
     26 O         -4.853778   -3.517099   6.509417 O.3        1 UNL1     -0.5058
     27 O         -0.076213   0.124044   2.555139 O.3        1 UNL1     -0.3648
     28 O         0.584977   -1.93884   -0.330951 O.3        1 UNL1     -0.3841
     29 O         -2.493049   -0.111575   -0.136764 O.3        1 UNL1     -0.3863
     30 O         -1.820256   -3.685143   0.389615 O.3        1 UNL1     -0.3829
     31 H         1.025577   -1.440693   1.993319 H        1 UNL1     0.0937
     32 H         0.0   0.0   0.0 H        1 UNL1     0.0671
     33 H         -1.684094   -1.683514   -1.115713 H        1 UNL1     0.0649
     34 H         -3.444941   -2.442731   0.559161 H        1 UNL1     0.0683
     35 H         -2.520761   -3.119064   2.727736 H        1 UNL1     0.1085
     36 H         -4.068513   -3.242509   4.09793 H        1 UNL1     0.0691
     37 H         -2.659998   0.812383   4.549734 H        1 UNL1     0.0691
     38 H         -2.724448   -0.32661   9.29011 H        1 UNL1     0.0385
     39 H         -4.303817   -0.091023   10.063823 H        1 UNL1     0.0385
     40 H         -3.485262   1.940878   8.81055 H        1 UNL1     0.0789
     41 H         -5.344458   1.817583   5.990397 H        1 UNL1     0.0623
     42 H         -7.665388   2.604942   5.754742 H        1 UNL1     0.0654
     43 H         -8.255341   2.169109   9.986927 H        1 UNL1     0.0654
     44 H         -5.980674   1.353872   10.246224 H        1 UNL1     0.0623
     45 H         -9.307129   3.822728   7.312782 H        1 UNL1     0.2921
     46 H         -4.339119   -3.853233   7.260118 H        1 UNL1     0.2922
     47 H         0.53667   0.75561   2.153445 H        1 UNL1     0.2126
     48 H         1.503039   -1.665741   -0.140392 H        1 UNL1     0.2101
     49 H         -2.198965   0.439753   -0.879291 H        1 UNL1     0.2100
     50 H         -2.093893   -3.872313   -0.532233 H        1 UNL1     0.2102
@<TRIPOS>BOND
     1     1     2    1
     2     1     6    1
     3     2     3    1
     4     3     4    1
     5     3    29    1
     6     3    33    1
     7     4     5    1
     8     5     6    1
     9     5     7    1
    10     5    35    1
    11     7     8    1
    12     8     9   ar
    13     8    13   ar
    14     9    10   ar
    15     9    36    1
    16    10    11   ar
    17    10    26    1
    18    11    12   ar
    19    11    14    1
    20    12    13   ar
    21    12    17    1
    22    13    37    1
    23    14    15    1
    24    14    25    2
    25    15    16    1
    26    15    38    1
    27    15    39    1
    28    16    17    1
    29    16    18    1
    30    16    40    1
    31    18    19   ar
    32    18    23   ar
    33    19    20   ar
    34    19    41    1
    35    20    21   ar
    36    20    42    1
    37    21    22   ar
    38    21    24    1
    39    22    23   ar
    40    22    43    1
    41    23    44    1
    42    24    45    1
    43    26    46    1
    44    27    47    1
    45    28    48    1
    46    29    49    1
    47    30    50    1
    48     1    31    1
    49     1    27    1
    50     2    32    1
    51     2    28    1
    52     4    34    1
    53     4    30    1
