@<TRIPOS>MOLECULE
*****
 50 53 0 0 0
SMALL
GASTEIGER

@<TRIPOS>ATOM
     1 C         1.792996   -0.026497   1.247103 C.3        1 UNL1     0.1889
     2 C         1.012722   -0.420321   -0.035868 C.3        1 UNL1     0.1342
     3 C         0.918907   -1.932542   -0.290526 C.3        1 UNL1     0.1174
     4 C         2.17348   -2.688288   0.154458 C.3        1 UNL1     0.1456
     5 C         2.648291   -2.269255   1.557786 C.3        1 UNL1     0.2326
     6 O         2.887062   -0.863987   1.590652 O.3        1 UNL1     -0.3076
     7 O         1.782019   -2.720902   2.614625 O.3        1 UNL1     -0.4605
     8 C         1.957493   -2.111966   3.844233 C.ar        1 UNL1     0.1310
     9 C         2.059806   -2.777223   5.070718 C.ar        1 UNL1     0.0226
     10 C         2.254267   -2.070435   6.26342 C.ar        1 UNL1     0.1343
     11 C         2.375072   -0.681483   6.255642 C.ar        1 UNL1     0.1007
     12 C         2.233571   -0.002957   5.042232 C.ar        1 UNL1     0.1389
     13 C         2.035404   -0.713664   3.84346 C.ar        1 UNL1     0.0229
     14 C         2.664718   0.108506   7.47473 C.2        1 UNL1     0.1740
     15 C         2.982591   1.557511   7.249135 C.3        1 UNL1     0.0520
     16 C         2.050453   2.093069   6.171056 C.3        1 UNL1     0.1322
     17 O         2.227379   1.368354   4.9339 O.3        1 UNL1     -0.4828
     18 C         0.594992   2.226409   6.625563 C.ar        1 UNL1     -0.0067
     19 C         -0.326065   2.912002   5.807131 C.ar        1 UNL1     -0.0516
     20 C         -1.653119   3.093055   6.214698 C.ar        1 UNL1     -0.0198
     21 C         -2.068658   2.600796   7.438967 C.ar        1 UNL1     0.1169
     22 C         -1.193678   1.892286   8.252147 C.ar        1 UNL1     -0.0198
     23 C         0.128619   1.695069   7.836583 C.ar        1 UNL1     -0.0516
     24 O         -3.358517   2.829226   7.819077 O.3        1 UNL1     -0.5068
     25 O         2.726683   -0.381676   8.599171 O.2        1 UNL1     -0.2917
     26 O         2.344612   -2.77881   7.426015 O.3        1 UNL1     -0.5058
     27 O         0.9548   0.224646   2.363858 O.3        1 UNL1     -0.3648
     28 O         1.676811   0.164909   -1.171296 O.3        1 UNL1     -0.3841
     29 O         -0.27946   -2.468438   0.274156 O.3        1 UNL1     -0.3863
     30 O         3.237326   -2.437583   -0.789506 O.3        1 UNL1     -0.3829
     31 H         2.265293   0.940345   1.041598 H        1 UNL1     0.0937
     32 H         -0.0   0.0   0.0 H        1 UNL1     0.0671
     33 H         0.824012   -2.084772   -1.37475 H        1 UNL1     0.0649
     34 H         1.983469   -3.767265   0.144155 H        1 UNL1     0.0683
     35 H         3.623253   -2.761029   1.66496 H        1 UNL1     0.1085
     36 H         2.030089   -3.859296   5.136706 H        1 UNL1     0.0691
     37 H         1.927247   -0.161858   2.912168 H        1 UNL1     0.0691
     38 H         4.029433   1.621699   6.933655 H        1 UNL1     0.0385
     39 H         2.876518   2.099724   8.194932 H        1 UNL1     0.0385
     40 H         2.377369   3.115781   5.939311 H        1 UNL1     0.0789
     41 H         -0.022238   3.315859   4.845757 H        1 UNL1     0.0623
     42 H         -2.350757   3.633831   5.579974 H        1 UNL1     0.0654
     43 H         -1.512565   1.489471   9.206066 H        1 UNL1     0.0654
     44 H         0.782122   1.127737   8.49226 H        1 UNL1     0.0623
     45 H         -3.389623   2.871572   8.788591 H        1 UNL1     0.2921
     46 H         1.524299   -2.673783   7.933428 H        1 UNL1     0.2922
     47 H         1.00303   1.157462   2.615628 H        1 UNL1     0.2126
     48 H         1.79758   -0.5511   -1.824349 H        1 UNL1     0.2101
     49 H         -0.377314   -3.399394   0.018149 H        1 UNL1     0.2100
     50 H         2.833907   -2.09886   -1.61548 H        1 UNL1     0.2102
@<TRIPOS>BOND
     1     1     2    1
     2     1     6    1
     3     2     3    1
     4     3     4    1
     5     3    29    1
     6     3    33    1
     7     4     5    1
     8     5     6    1
     9     5     7    1
    10     5    35    1
    11     7     8    1
    12     8     9   ar
    13     8    13   ar
    14     9    10   ar
    15     9    36    1
    16    10    11   ar
    17    10    26    1
    18    11    12   ar
    19    11    14    1
    20    12    13   ar
    21    12    17    1
    22    13    37    1
    23    14    15    1
    24    14    25    2
    25    15    16    1
    26    15    38    1
    27    15    39    1
    28    16    17    1
    29    16    18    1
    30    16    40    1
    31    18    19   ar
    32    18    23   ar
    33    19    20   ar
    34    19    41    1
    35    20    21   ar
    36    20    42    1
    37    21    22   ar
    38    21    24    1
    39    22    23   ar
    40    22    43    1
    41    23    44    1
    42    24    45    1
    43    26    46    1
    44    27    47    1
    45    28    48    1
    46    29    49    1
    47    30    50    1
    48     1    31    1
    49     1    27    1
    50     2    32    1
    51     2    28    1
    52     4    34    1
    53     4    30    1
