@<TRIPOS>MOLECULE
*****
 50 53 0 0 0
SMALL
GASTEIGER

@<TRIPOS>ATOM
     1 C         -0.33217   -1.328065   1.701972 C.3        1 UNL1     0.1889
     2 C         -0.462631   -0.975287   0.195829 C.3        1 UNL1     0.1342
     3 C         -1.903484   -0.962538   -0.337318 C.3        1 UNL1     0.1174
     4 C         -2.78996   -2.021556   0.322802 C.3        1 UNL1     0.1456
     5 C         -2.63829   -2.046743   1.854704 C.3        1 UNL1     0.2326
     6 O         -1.273422   -2.265036   2.204491 O.3        1 UNL1     -0.3076
     7 O         -3.212975   -0.89951   2.50656 O.3        1 UNL1     -0.4605
     8 C         -3.722492   -1.114678   3.774481 C.ar        1 UNL1     0.1310
     9 C         -4.853478   -1.881832   4.073889 C.ar        1 UNL1     0.0226
     10 C         -5.281632   -2.054662   5.395523 C.ar        1 UNL1     0.1343
     11 C         -4.574637   -1.483536   6.452791 C.ar        1 UNL1     0.1007
     12 C         -3.467487   -0.681523   6.163349 C.ar        1 UNL1     0.1389
     13 C         -3.038727   -0.505726   4.83418 C.ar        1 UNL1     0.0229
     14 C         -4.933543   -1.702668   7.873115 C.2        1 UNL1     0.1740
     15 C         -3.93945   -1.200878   8.878866 C.3        1 UNL1     0.0520
     16 C         -3.409787   0.144764   8.402773 C.3        1 UNL1     0.1322
     17 O         -2.763155   0.015634   7.11737 O.3        1 UNL1     -0.4828
     18 C         -4.437919   1.275658   8.484913 C.ar        1 UNL1     -0.0067
     19 C         -4.634263   2.115486   7.369408 C.ar        1 UNL1     -0.0516
     20 C         -5.532137   3.188085   7.426994 C.ar        1 UNL1     -0.0198
     21 C         -6.232645   3.435257   8.59405 C.ar        1 UNL1     0.1169
     22 C         -6.085701   2.605825   9.698264 C.ar        1 UNL1     -0.0198
     23 C         -5.201627   1.522105   9.634874 C.ar        1 UNL1     -0.0516
     24 O         -7.069949   4.511526   8.625185 O.3        1 UNL1     -0.5068
     25 O         -5.932136   -2.322098   8.230332 O.2        1 UNL1     -0.2917
     26 O         -6.392913   -2.813808   5.619884 O.3        1 UNL1     -0.5058
     27 O         -0.226601   -0.189765   2.542159 O.3        1 UNL1     -0.3648
     28 O         0.267672   -1.953954   -0.566781 O.3        1 UNL1     -0.3841
     29 O         -2.460657   0.351201   -0.261286 O.3        1 UNL1     -0.3863
     30 O         -2.442695   -3.322483   -0.19939 O.3        1 UNL1     -0.3829
     31 H         0.628397   -1.84111   1.821032 H        1 UNL1     0.0937
     32 H         0.0   0.0   0.0 H        1 UNL1     0.0671
     33 H         -1.866564   -1.202217   -1.40919 H        1 UNL1     0.0649
     34 H         -3.840057   -1.843037   0.066232 H        1 UNL1     0.0683
     35 H         -3.193174   -2.94246   2.160763 H        1 UNL1     0.1085
     36 H         -5.413435   -2.397626   3.301539 H        1 UNL1     0.0691
     37 H         -2.174498   0.124391   4.635298 H        1 UNL1     0.0691
     38 H         -3.134611   -1.940597   8.946519 H        1 UNL1     0.0385
     39 H         -4.423916   -1.131935   9.858824 H        1 UNL1     0.0385
     40 H         -2.602366   0.435731   9.088287 H        1 UNL1     0.0789
     41 H         -4.089646   1.947991   6.444753 H        1 UNL1     0.0623
     42 H         -5.665917   3.835669   6.564005 H        1 UNL1     0.0654
     43 H         -6.64054   2.781316   10.612194 H        1 UNL1     0.0654
     44 H         -5.119564   0.888514   10.512754 H        1 UNL1     0.0623
     45 H         -6.545348   5.312921   8.466196 H        1 UNL1     0.2921
     46 H         -6.17316   -3.537223   6.227989 H        1 UNL1     0.2922
     47 H         0.516475   0.363793   2.264183 H        1 UNL1     0.2126
     48 H         1.200616   -1.888279   -0.285652 H        1 UNL1     0.2101
     49 H         -2.021704   0.933405   -0.901718 H        1 UNL1     0.2100
     50 H         -2.675993   -3.337599   -1.150734 H        1 UNL1     0.2102
@<TRIPOS>BOND
     1     1     2    1
     2     1     6    1
     3     2     3    1
     4     3     4    1
     5     3    29    1
     6     3    33    1
     7     4     5    1
     8     5     6    1
     9     5     7    1
    10     5    35    1
    11     7     8    1
    12     8     9   ar
    13     8    13   ar
    14     9    10   ar
    15     9    36    1
    16    10    11   ar
    17    10    26    1
    18    11    12   ar
    19    11    14    1
    20    12    13   ar
    21    12    17    1
    22    13    37    1
    23    14    15    1
    24    14    25    2
    25    15    16    1
    26    15    38    1
    27    15    39    1
    28    16    17    1
    29    16    18    1
    30    16    40    1
    31    18    19   ar
    32    18    23   ar
    33    19    20   ar
    34    19    41    1
    35    20    21   ar
    36    20    42    1
    37    21    22   ar
    38    21    24    1
    39    22    23   ar
    40    22    43    1
    41    23    44    1
    42    24    45    1
    43    26    46    1
    44    27    47    1
    45    28    48    1
    46    29    49    1
    47    30    50    1
    48     1    31    1
    49     1    27    1
    50     2    32    1
    51     2    28    1
    52     4    34    1
    53     4    30    1
