@<TRIPOS>MOLECULE
*****
 50 53 0 0 0
SMALL
GASTEIGER

@<TRIPOS>ATOM
     1 C         -0.33296   -1.328435   1.701529 C.3        1 UNL1     0.1889
     2 C         -0.463051   -0.97516   0.19547 C.3        1 UNL1     0.1342
     3 C         -1.903817   -0.961677   -0.337893 C.3        1 UNL1     0.1174
     4 C         -2.790817   -2.020536   0.321779 C.3        1 UNL1     0.1456
     5 C         -2.639391   -2.046236   1.853697 C.3        1 UNL1     0.2326
     6 O         -1.274664   -2.265178   2.203627 O.3        1 UNL1     -0.3076
     7 O         -3.213717   -0.898967   2.505804 O.3        1 UNL1     -0.4605
     8 C         -3.723513   -1.114305   3.773583 C.ar        1 UNL1     0.1310
     9 C         -4.540364   -2.186936   4.147105 C.ar        1 UNL1     0.0226
     10 C         -4.99337   -2.327239   5.4643 C.ar        1 UNL1     0.1343
     11 C         -4.6206   -1.410363   6.446248 C.ar        1 UNL1     0.1007
     12 C         -3.838932   -0.312617   6.076476 C.ar        1 UNL1     0.1389
     13 C         -3.385743   -0.170331   4.751408 C.ar        1 UNL1     0.0229
     14 C         -5.001304   -1.556159   7.870313 C.2        1 UNL1     0.1740
     15 C         -4.331899   -0.608329   8.821663 C.3        1 UNL1     0.0520
     16 C         -4.261973   0.763684   8.165426 C.3        1 UNL1     0.1322
     17 O         -3.503446   0.706602   6.937237 O.3        1 UNL1     -0.4828
     18 C         -5.620898   1.456752   8.040116 C.ar        1 UNL1     -0.0067
     19 C         -5.999755   2.019875   6.804165 C.ar        1 UNL1     -0.0516
     20 C         -7.214709   2.701984   6.667874 C.ar        1 UNL1     -0.0198
     21 C         -8.05432   2.833886   7.759424 C.ar        1 UNL1     0.1169
     22 C         -7.724253   2.261401   8.980963 C.ar        1 UNL1     -0.0198
     23 C         -6.517849   1.563344   9.112735 C.ar        1 UNL1     -0.0516
     24 O         -9.211693   3.537445   7.598511 O.3        1 UNL1     -0.5068
     25 O         -5.750496   -2.437542   8.28306 O.2        1 UNL1     -0.2917
     26 O         -5.788177   -3.395209   5.763143 O.3        1 UNL1     -0.5058
     27 O         -0.227065   -0.190425   2.542068 O.3        1 UNL1     -0.3648
     28 O         0.266977   -1.953893   -0.567318 O.3        1 UNL1     -0.3841
     29 O         -2.460476   0.352262   -0.261558 O.3        1 UNL1     -0.3863
     30 O         -2.443992   -3.321447   -0.200745 O.3        1 UNL1     -0.3829
     31 H         0.627384   -1.841899   1.820583 H        1 UNL1     0.0937
     32 H         0.0   0.0   0.0 H        1 UNL1     0.0671
     33 H         -1.86683   -1.201055   -1.409831 H        1 UNL1     0.0649
     34 H         -3.840803   -1.841522   0.065101 H        1 UNL1     0.0683
     35 H         -3.19468   -2.941823   2.159406 H        1 UNL1     0.1085
     36 H         -4.819202   -2.963429   3.443237 H        1 UNL1     0.0691
     37 H         -2.7793   0.693843   4.488875 H        1 UNL1     0.0691
     38 H         -3.329732   -0.998963   9.028044 H        1 UNL1     0.0385
     39 H         -4.892021   -0.589109   9.762764 H        1 UNL1     0.0385
     40 H         -3.666719   1.408514   8.826023 H        1 UNL1     0.0789
     41 H         -5.35405   1.937922   5.934683 H        1 UNL1     0.0623
     42 H         -7.490138   3.142085   5.712645 H        1 UNL1     0.0654
     43 H         -8.38136   2.345738   9.838289 H        1 UNL1     0.0654
     44 H         -6.296854   1.119789   10.078791 H        1 UNL1     0.0623
     45 H         -8.985246   4.444911   7.337852 H        1 UNL1     0.2921
     46 H         -5.384522   -3.908022   6.481125 H        1 UNL1     0.2922
     47 H         0.516275   0.362918   2.26437 H        1 UNL1     0.2126
     48 H         1.199905   -1.888674   -0.286027 H        1 UNL1     0.2101
     49 H         -2.021193   0.93448   -0.90175 H        1 UNL1     0.2100
     50 H         -2.677151   -3.336189   -1.152129 H        1 UNL1     0.2102
@<TRIPOS>BOND
     1     1     2    1
     2     1     6    1
     3     2     3    1
     4     3     4    1
     5     3    29    1
     6     3    33    1
     7     4     5    1
     8     5     6    1
     9     5     7    1
    10     5    35    1
    11     7     8    1
    12     8     9   ar
    13     8    13   ar
    14     9    10   ar
    15     9    36    1
    16    10    11   ar
    17    10    26    1
    18    11    12   ar
    19    11    14    1
    20    12    13   ar
    21    12    17    1
    22    13    37    1
    23    14    15    1
    24    14    25    2
    25    15    16    1
    26    15    38    1
    27    15    39    1
    28    16    17    1
    29    16    18    1
    30    16    40    1
    31    18    19   ar
    32    18    23   ar
    33    19    20   ar
    34    19    41    1
    35    20    21   ar
    36    20    42    1
    37    21    22   ar
    38    21    24    1
    39    22    23   ar
    40    22    43    1
    41    23    44    1
    42    24    45    1
    43    26    46    1
    44    27    47    1
    45    28    48    1
    46    29    49    1
    47    30    50    1
    48     1    31    1
    49     1    27    1
    50     2    32    1
    51     2    28    1
    52     4    34    1
    53     4    30    1
