@<TRIPOS>MOLECULE
*****
 50 53 0 0 0
SMALL
GASTEIGER

@<TRIPOS>ATOM
     1 C         -0.190924   -0.355459   2.146626 C.3        1 UNL1     0.1889
     2 C         -0.788198   0.016728   0.762906 C.3        1 UNL1     0.1342
     3 C         -1.501149   1.3769   0.717084 C.3        1 UNL1     0.1174
     4 C         -2.223595   1.712639   2.024169 C.3        1 UNL1     0.1456
     5 C         -1.350795   1.450569   3.265097 C.3        1 UNL1     0.2326
     6 O         -0.92182   0.090919   3.279292 O.3        1 UNL1     -0.3076
     7 O         -0.267988   2.38712   3.412479 O.3        1 UNL1     -0.4605
     8 C         0.312153   2.450591   4.666646 C.ar        1 UNL1     0.1310
     9 C         1.382066   3.278329   5.023626 C.ar        1 UNL1     0.0226
     10 C         1.889652   3.282809   6.328324 C.ar        1 UNL1     0.1343
     11 C         1.323567   2.476245   7.314652 C.ar        1 UNL1     0.1007
     12 C         0.281466   1.615304   6.960267 C.ar        1 UNL1     0.1389
     13 C         -0.226999   1.609054   5.647691 C.ar        1 UNL1     0.0229
     14 C         1.765346   2.502811   8.728257 C.2        1 UNL1     0.1740
     15 C         0.903698   1.741283   9.692201 C.3        1 UNL1     0.0520
     16 C         0.473741   0.439724   9.029601 C.3        1 UNL1     0.1322
     17 O         -0.277439   0.701918   7.82376 O.3        1 UNL1     -0.4828
     18 C         1.610746   -0.571064   8.86152 C.ar        1 UNL1     -0.0067
     19 C         2.43298   -0.87834   9.965027 C.ar        1 UNL1     -0.0516
     20 C         3.51067   -1.76226   9.833748 C.ar        1 UNL1     -0.0198
     21 C         3.78042   -2.338463   8.605314 C.ar        1 UNL1     0.1169
     22 C         2.96863   -2.081452   7.508143 C.ar        1 UNL1     -0.0198
     23 C         1.879791   -1.211889   7.643591 C.ar        1 UNL1     -0.0516
     24 O         4.861052   -3.164837   8.50662 O.3        1 UNL1     -0.5068
     25 O         2.722675   3.161958   9.125159 O.2        1 UNL1     -0.2917
     26 O         2.935138   4.112566   6.611252 O.3        1 UNL1     -0.5058
     27 O         1.191157   -0.057543   2.264457 O.3        1 UNL1     -0.3648
     28 O         -1.754844   -0.986096   0.398701 O.3        1 UNL1     -0.3841
     29 O         -0.602052   2.406902   0.30133 O.3        1 UNL1     -0.3863
     30 O         -3.421857   0.912483   2.122187 O.3        1 UNL1     -0.3829
     31 H         -0.239078   -1.447089   2.224747 H        1 UNL1     0.0937
     32 H         0.0   0.0   0.0 H        1 UNL1     0.0671
     33 H         -2.269629   1.326467   -0.06689 H        1 UNL1     0.0649
     34 H         -2.538472   2.76203   2.018555 H        1 UNL1     0.0683
     35 H         -2.043491   1.575276   4.106822 H        1 UNL1     0.1085
     36 H         1.829118   3.968982   4.317039 H        1 UNL1     0.0691
     37 H         -1.038015   0.928683   5.397007 H        1 UNL1     0.0691
     38 H         0.037805   2.368603   9.92932 H        1 UNL1     0.0385
     39 H         1.465049   1.569412   10.616931 H        1 UNL1     0.0385
     40 H         -0.247403   -0.043372   9.702719 H        1 UNL1     0.0789
     41 H         2.247642   -0.432068   10.937725 H        1 UNL1     0.0623
     42 H         4.144556   -1.981963   10.689278 H        1 UNL1     0.0654
     43 H         3.161835   -2.538968   6.545199 H        1 UNL1     0.0654
     44 H         1.26039   -1.042057   6.76818 H        1 UNL1     0.0623
     45 H         5.266088   -3.246322   9.385268 H        1 UNL1     0.2921
     46 H         3.194213   4.591858   5.8084 H        1 UNL1     0.2922
     47 H         1.716984   -0.712835   1.784919 H        1 UNL1     0.2126
     48 H         -1.407208   -1.433927   -0.39649 H        1 UNL1     0.2101
     49 H         -0.261841   2.880827   1.076859 H        1 UNL1     0.2100
     50 H         -4.074176   1.410679   2.656969 H        1 UNL1     0.2102
@<TRIPOS>BOND
     1     1     2    1
     2     1     6    1
     3     2     3    1
     4     3     4    1
     5     3    29    1
     6     3    33    1
     7     4     5    1
     8     5     6    1
     9     5     7    1
    10     5    35    1
    11     7     8    1
    12     8     9   ar
    13     8    13   ar
    14     9    10   ar
    15     9    36    1
    16    10    11   ar
    17    10    26    1
    18    11    12   ar
    19    11    14    1
    20    12    13   ar
    21    12    17    1
    22    13    37    1
    23    14    15    1
    24    14    25    2
    25    15    16    1
    26    15    38    1
    27    15    39    1
    28    16    17    1
    29    16    18    1
    30    16    40    1
    31    18    19   ar
    32    18    23   ar
    33    19    20   ar
    34    19    41    1
    35    20    21   ar
    36    20    42    1
    37    21    22   ar
    38    21    24    1
    39    22    23   ar
    40    22    43    1
    41    23    44    1
    42    24    45    1
    43    26    46    1
    44    27    47    1
    45    28    48    1
    46    29    49    1
    47    30    50    1
    48     1    31    1
    49     1    27    1
    50     2    32    1
    51     2    28    1
    52     4    34    1
    53     4    30    1
