@<TRIPOS>MOLECULE
*****
 50 53 0 0 0
SMALL
GASTEIGER

@<TRIPOS>ATOM
     1 C         -0.332119   -1.328332   1.701774 C.3        1 UNL1     0.1889
     2 C         -0.462524   -0.97537   0.195669 C.3        1 UNL1     0.1342
     3 C         -1.903343   -0.962728   -0.337572 C.3        1 UNL1     0.1174
     4 C         -2.789732   -2.021943   0.322349 C.3        1 UNL1     0.1456
     5 C         -2.638161   -2.047314   1.854258 C.3        1 UNL1     0.2326
     6 O         -1.273288   -2.265486   2.204106 O.3        1 UNL1     -0.3076
     7 O         -3.21303   -0.900239   2.506228 O.3        1 UNL1     -0.4605
     8 C         -3.723879   -1.115955   3.773519 C.ar        1 UNL1     0.1310
     9 C         -4.541037   -2.188698   4.146044 C.ar        1 UNL1     0.0226
     10 C         -4.995138   -2.329391   5.462821 C.ar        1 UNL1     0.1343
     11 C         -4.623185   -1.412806   6.44535 C.ar        1 UNL1     0.1007
     12 C         -3.841212   -0.314948   6.076553 C.ar        1 UNL1     0.1389
     13 C         -3.386923   -0.172269   4.751904 C.ar        1 UNL1     0.0229
     14 C         -5.005071   -1.559024   7.869055 C.2        1 UNL1     0.1740
     15 C         -4.336459   -0.611476   8.821241 C.3        1 UNL1     0.0520
     16 C         -4.265991   0.760733   8.16547 C.3        1 UNL1     0.1322
     17 O         -3.506444   0.704016   6.937894 O.3        1 UNL1     -0.4828
     18 C         -5.624813   1.453835   8.039236 C.ar        1 UNL1     -0.0067
     19 C         -6.001857   2.018958   6.803644 C.ar        1 UNL1     -0.0516
     20 C         -7.21669   2.701139   6.666631 C.ar        1 UNL1     -0.0198
     21 C         -8.057981   2.831124   7.757116 C.ar        1 UNL1     0.1169
     22 C         -7.729704   2.256656   8.978206 C.ar        1 UNL1     -0.0198
     23 C         -6.523413   1.558535   9.110661 C.ar        1 UNL1     -0.0516
     24 O         -9.215198   3.534802   7.595605 O.3        1 UNL1     -0.5068
     25 O         -5.754605   -2.440531   8.280918 O.2        1 UNL1     -0.2917
     26 O         -5.79019   -3.397451   5.760687 O.3        1 UNL1     -0.5058
     27 O         -0.226746   -0.19013   2.542119 O.3        1 UNL1     -0.3648
     28 O         0.267951   -1.953846   -0.567023 O.3        1 UNL1     -0.3841
     29 O         -2.460683   0.350932   -0.261403 O.3        1 UNL1     -0.3863
     30 O         -2.442271   -3.322758   -0.199993 O.3        1 UNL1     -0.3829
     31 H         0.628504   -1.841274   1.820829 H        1 UNL1     0.0937
     32 H         0.0   0.0   0.0 H        1 UNL1     0.0671
     33 H         -1.866323   -1.202261   -1.409474 H        1 UNL1     0.0649
     34 H         -3.839834   -1.84352   0.065733 H        1 UNL1     0.0683
     35 H         -3.192954   -2.943141   2.160161 H        1 UNL1     0.1085
     36 H         -4.819289   -2.964982   3.441715 H        1 UNL1     0.0691
     37 H         -2.780264   0.691984   4.490131 H        1 UNL1     0.0691
     38 H         -3.334463   -1.002168   9.028339 H        1 UNL1     0.0385
     39 H         -4.897363   -0.592535   9.761883 H        1 UNL1     0.0385
     40 H         -3.671287   1.405367   8.826751 H        1 UNL1     0.0789
     41 H         -5.354816   1.938529   5.935013 H        1 UNL1     0.0623
     42 H         -7.490718   3.142788   5.711714 H        1 UNL1     0.0654
     43 H         -8.388128   2.339488   9.834668 H        1 UNL1     0.0654
     44 H         -6.303834   1.113406   10.076316 H        1 UNL1     0.0623
     45 H         -8.988472   4.442728   7.336796 H        1 UNL1     0.2921
     46 H         -5.387131   -3.910477   6.478852 H        1 UNL1     0.2922
     47 H         0.51628   0.363557   2.264266 H        1 UNL1     0.2126
     48 H         1.200868   -1.888093   -0.285823 H        1 UNL1     0.2101
     49 H         -2.022234   0.933102   -0.902211 H        1 UNL1     0.2100
     50 H         -2.675505   -3.337777   -1.151355 H        1 UNL1     0.2102
@<TRIPOS>BOND
     1     1     2    1
     2     1     6    1
     3     2     3    1
     4     3     4    1
     5     3    29    1
     6     3    33    1
     7     4     5    1
     8     5     6    1
     9     5     7    1
    10     5    35    1
    11     7     8    1
    12     8     9   ar
    13     8    13   ar
    14     9    10   ar
    15     9    36    1
    16    10    11   ar
    17    10    26    1
    18    11    12   ar
    19    11    14    1
    20    12    13   ar
    21    12    17    1
    22    13    37    1
    23    14    15    1
    24    14    25    2
    25    15    16    1
    26    15    38    1
    27    15    39    1
    28    16    17    1
    29    16    18    1
    30    16    40    1
    31    18    19   ar
    32    18    23   ar
    33    19    20   ar
    34    19    41    1
    35    20    21   ar
    36    20    42    1
    37    21    22   ar
    38    21    24    1
    39    22    23   ar
    40    22    43    1
    41    23    44    1
    42    24    45    1
    43    26    46    1
    44    27    47    1
    45    28    48    1
    46    29    49    1
    47    30    50    1
    48     1    31    1
    49     1    27    1
    50     2    32    1
    51     2    28    1
    52     4    34    1
    53     4    30    1
