@<TRIPOS>MOLECULE
*****
 50 53 0 0 0
SMALL
GASTEIGER

@<TRIPOS>ATOM
     1 C         1.897224   0.974685   0.470464 C.3        1 UNL1     0.1889
     2 C         0.84786   -0.150009   0.679847 C.3        1 UNL1     0.1342
     3 C         0.321114   -0.275981   2.117601 C.3        1 UNL1     0.1174
     4 C         1.387275   0.038541   3.169976 C.3        1 UNL1     0.1456
     5 C         2.171585   1.324088   2.849678 C.3        1 UNL1     0.2326
     6 O         2.773075   1.218245   1.561316 O.3        1 UNL1     -0.3076
     7 O         1.395906   2.525038   3.015095 O.3        1 UNL1     -0.4605
     8 C         1.557044   3.490262   2.037391 C.ar        1 UNL1     0.1310
     9 C         2.576307   3.51094   1.07928 C.ar        1 UNL1     0.0226
     10 C         2.644502   4.525394   0.116921 C.ar        1 UNL1     0.1343
     11 C         1.680423   5.53167   0.07449 C.ar        1 UNL1     0.1007
     12 C         0.681262   5.544553   1.05137 C.ar        1 UNL1     0.1389
     13 C         0.614433   4.525887   2.020537 C.ar        1 UNL1     0.0229
     14 C         1.656308   6.580224   -0.971506 C.2        1 UNL1     0.1740
     15 C         0.429253   7.443486   -0.997302 C.3        1 UNL1     0.0520
     16 C         0.031806   7.758884   0.438148 C.3        1 UNL1     0.1322
     17 O         -0.254226   6.546164   1.169287 O.3        1 UNL1     -0.4828
     18 C         0.993096   8.715585   1.147632 C.ar        1 UNL1     -0.0067
     19 C         2.035529   8.189796   1.938261 C.ar        1 UNL1     -0.0516
     20 C         2.903099   9.036497   2.638534 C.ar        1 UNL1     -0.0198
     21 C         2.73455   10.407491   2.562418 C.ar        1 UNL1     0.1169
     22 C         1.738121   10.956092   1.765545 C.ar        1 UNL1     -0.0198
     23 C         0.881938   10.110077   1.050518 C.ar        1 UNL1     -0.0516
     24 O         3.575002   11.199473   3.288232 O.3        1 UNL1     -0.5068
     25 O         2.53144   6.704858   -1.824205 O.2        1 UNL1     -0.2917
     26 O         3.664352   4.488389   -0.788684 O.3        1 UNL1     -0.5058
     27 O         1.34231   2.178747   -0.0346 O.3        1 UNL1     -0.3648
     28 O         1.453727   -1.409304   0.333716 O.3        1 UNL1     -0.3841
     29 O         -0.870757   0.493301   2.290171 O.3        1 UNL1     -0.3863
     30 O         2.316125   -1.064584   3.247712 O.3        1 UNL1     -0.3829
     31 H         2.568088   0.632436   -0.325077 H        1 UNL1     0.0937
     32 H         -0.0   0.0   0.0 H        1 UNL1     0.0671
     33 H         0.019033   -1.321015   2.273711 H        1 UNL1     0.0649
     34 H         0.921454   0.135505   4.156895 H        1 UNL1     0.0683
     35 H         2.987406   1.325955   3.583376 H        1 UNL1     0.1085
     36 H         3.323359   2.726702   1.02446 H        1 UNL1     0.0691
     37 H         -0.172625   4.559336   2.770813 H        1 UNL1     0.0691
     38 H         -0.359047   6.883277   -1.511378 H        1 UNL1     0.0385
     39 H         0.639347   8.348685   -1.577175 H        1 UNL1     0.0385
     40 H         -0.929436   8.288971   0.398857 H        1 UNL1     0.0789
     41 H         2.183112   7.11699   2.021668 H        1 UNL1     0.0623
     42 H         3.695693   8.618613   3.25431 H        1 UNL1     0.0654
     43 H         1.606701   12.028681   1.686848 H        1 UNL1     0.0654
     44 H         0.121232   10.573213   0.429489 H        1 UNL1     0.0623
     45 H         3.664407   10.818456   4.176798 H        1 UNL1     0.2921
     46 H         4.339824   3.859292   -0.489708 H        1 UNL1     0.2922
     47 H         1.60761   2.927258   0.517855 H        1 UNL1     0.2126
     48 H         2.172714   -1.560013   0.977204 H        1 UNL1     0.2101
     49 H         -0.851039   0.944158   3.149317 H        1 UNL1     0.2100
     50 H         2.062937   -1.618423   4.01509 H        1 UNL1     0.2102
@<TRIPOS>BOND
     1     1     2    1
     2     1     6    1
     3     2     3    1
     4     3     4    1
     5     3    29    1
     6     3    33    1
     7     4     5    1
     8     5     6    1
     9     5     7    1
    10     5    35    1
    11     7     8    1
    12     8     9   ar
    13     8    13   ar
    14     9    10   ar
    15     9    36    1
    16    10    11   ar
    17    10    26    1
    18    11    12   ar
    19    11    14    1
    20    12    13   ar
    21    12    17    1
    22    13    37    1
    23    14    15    1
    24    14    25    2
    25    15    16    1
    26    15    38    1
    27    15    39    1
    28    16    17    1
    29    16    18    1
    30    16    40    1
    31    18    19   ar
    32    18    23   ar
    33    19    20   ar
    34    19    41    1
    35    20    21   ar
    36    20    42    1
    37    21    22   ar
    38    21    24    1
    39    22    23   ar
    40    22    43    1
    41    23    44    1
    42    24    45    1
    43    26    46    1
    44    27    47    1
    45    28    48    1
    46    29    49    1
    47    30    50    1
    48     1    31    1
    49     1    27    1
    50     2    32    1
    51     2    28    1
    52     4    34    1
    53     4    30    1
