@<TRIPOS>MOLECULE
*****
 50 53 0 0 0
SMALL
GASTEIGER

@<TRIPOS>ATOM
     1 C         -0.262694   -1.994046   -0.851808 C.3        1 UNL1     0.1889
     2 C         0.041587   -1.043201   0.336993 C.3        1 UNL1     0.1342
     3 C         1.390458   -1.292913   1.028842 C.3        1 UNL1     0.1174
     4 C         1.775411   -2.774078   1.061684 C.3        1 UNL1     0.1456
     5 C         1.577893   -3.465564   -0.299638 C.3        1 UNL1     0.2326
     6 O         0.225012   -3.321729   -0.726126 O.3        1 UNL1     -0.3076
     7 O         2.531936   -3.053893   -1.295454 O.3        1 UNL1     -0.4605
     8 C         2.88693   -4.012265   -2.227673 C.ar        1 UNL1     0.1310
     9 C         3.514883   -5.22895   -1.94018 C.ar        1 UNL1     0.0226
     10 C         3.819187   -6.143924   -2.955131 C.ar        1 UNL1     0.1343
     11 C         3.481071   -5.874505   -4.280624 C.ar        1 UNL1     0.1007
     12 C         2.890821   -4.645075   -4.585401 C.ar        1 UNL1     0.1389
     13 C         2.587342   -3.724107   -3.565033 C.ar        1 UNL1     0.0229
     14 C         3.703252   -6.841119   -5.380828 C.2        1 UNL1     0.1740
     15 C         3.079472   -6.481149   -6.697213 C.3        1 UNL1     0.0520
     16 C         3.254916   -4.985383   -6.920508 C.3        1 UNL1     0.1322
     17 O         2.614523   -4.231176   -5.867826 O.3        1 UNL1     -0.4828
     18 C         4.699728   -4.570771   -7.209194 C.ar        1 UNL1     -0.0067
     19 C         4.972117   -3.249913   -7.62072 C.ar        1 UNL1     -0.0516
     20 C         6.275912   -2.850933   -7.93836 C.ar        1 UNL1     -0.0198
     21 C         7.312537   -3.763298   -7.85575 C.ar        1 UNL1     0.1169
     22 C         7.080984   -5.062   -7.421476 C.ar        1 UNL1     -0.0198
     23 C         5.780144   -5.45617   -7.086061 C.ar        1 UNL1     -0.0516
     24 O         8.562971   -3.348859   -8.209383 O.3        1 UNL1     -0.5068
     25 O         4.286225   -7.911938   -5.23259 O.2        1 UNL1     -0.2917
     26 O         4.43304   -7.312022   -2.608266 O.3        1 UNL1     -0.5058
     27 O         0.05538   -1.436831   -2.117164 O.3        1 UNL1     -0.3648
     28 O         -0.986924   -1.21126   1.330285 O.3        1 UNL1     -0.3841
     29 O         2.411033   -0.468262   0.462706 O.3        1 UNL1     -0.3863
     30 O         0.967149   -3.451856   2.048101 O.3        1 UNL1     -0.3829
     31 H         -1.350293   -2.122307   -0.879345 H        1 UNL1     0.0937
     32 H         0.0   0.0   0.0 H        1 UNL1     0.0671
     33 H         1.297067   -0.965581   2.073759 H        1 UNL1     0.0649
     34 H         2.819993   -2.882163   1.374042 H        1 UNL1     0.0683
     35 H         1.731872   -4.529619   -0.080651 H        1 UNL1     0.1085
     36 H         3.752845   -5.521547   -0.92338 H        1 UNL1     0.0691
     37 H         2.128781   -2.773469   -3.828666 H        1 UNL1     0.0691
     38 H         2.019282   -6.751187   -6.646181 H        1 UNL1     0.0385
     39 H         3.546092   -7.075681   -7.490041 H        1 UNL1     0.0385
     40 H         2.691314   -4.725066   -7.826658 H        1 UNL1     0.0789
     41 H         4.174372   -2.517392   -7.702367 H        1 UNL1     0.0623
     42 H         6.471322   -1.832824   -8.265899 H        1 UNL1     0.0654
     43 H         7.887816   -5.780391   -7.338729 H        1 UNL1     0.0654
     44 H         5.637296   -6.475466   -6.740409 H        1 UNL1     0.0623
     45 H         8.477886   -2.558537   -8.766938 H        1 UNL1     0.2921
     46 H         4.008388   -8.050833   -3.072207 H        1 UNL1     0.2922
     47 H         0.975922   -1.62774   -2.345231 H        1 UNL1     0.2126
     48 H         -1.285152   -0.315056   1.5785 H        1 UNL1     0.2101
     49 H         2.922374   -0.975651   -0.187587 H        1 UNL1     0.2100
     50 H         1.560648   -3.760403   2.763832 H        1 UNL1     0.2102
@<TRIPOS>BOND
     1     1     2    1
     2     1     6    1
     3     2     3    1
     4     3     4    1
     5     3    29    1
     6     3    33    1
     7     4     5    1
     8     5     6    1
     9     5     7    1
    10     5    35    1
    11     7     8    1
    12     8     9   ar
    13     8    13   ar
    14     9    10   ar
    15     9    36    1
    16    10    11   ar
    17    10    26    1
    18    11    12   ar
    19    11    14    1
    20    12    13   ar
    21    12    17    1
    22    13    37    1
    23    14    15    1
    24    14    25    2
    25    15    16    1
    26    15    38    1
    27    15    39    1
    28    16    17    1
    29    16    18    1
    30    16    40    1
    31    18    19   ar
    32    18    23   ar
    33    19    20   ar
    34    19    41    1
    35    20    21   ar
    36    20    42    1
    37    21    22   ar
    38    21    24    1
    39    22    23   ar
    40    22    43    1
    41    23    44    1
    42    24    45    1
    43    26    46    1
    44    27    47    1
    45    28    48    1
    46    29    49    1
    47    30    50    1
    48     1    31    1
    49     1    27    1
    50     2    32    1
    51     2    28    1
    52     4    34    1
    53     4    30    1
