@<TRIPOS>MOLECULE
*****
 50 53 0 0 0
SMALL
GASTEIGER

@<TRIPOS>ATOM
     1 C         -0.317314   -1.320987   1.710295 C.3        1 UNL1     0.1889
     2 C         -0.454705   -0.977631   0.202591 C.3        1 UNL1     0.1342
     3 C         -1.89712   -0.978707   -0.326468 C.3        1 UNL1     0.1174
     4 C         -2.773707   -2.040658   0.342092 C.3        1 UNL1     0.1456
     5 C         -2.617506   -2.056134   1.873668 C.3        1 UNL1     0.2326
     6 O         -1.250044   -2.262189   2.220735 O.3        1 UNL1     -0.3076
     7 O         -3.198975   -0.90963   2.520774 O.3        1 UNL1     -0.4605
     8 C         -3.703256   -1.121531   3.791335 C.ar        1 UNL1     0.1310
     9 C         -4.510442   -2.198383   4.17362 C.ar        1 UNL1     0.0226
     10 C         -4.958382   -2.33451   5.492983 C.ar        1 UNL1     0.1343
     11 C         -4.589974   -1.408941   6.4684 C.ar        1 UNL1     0.1007
     12 C         -3.818157   -0.307232   6.089826 C.ar        1 UNL1     0.1389
     13 C         -3.370073   -0.169166   4.762577 C.ar        1 UNL1     0.0229
     14 C         -4.965252   -1.549359   7.894445 C.2        1 UNL1     0.1740
     15 C         -4.300557   -0.590667   8.838182 C.3        1 UNL1     0.0520
     16 C         -4.243491   0.777968   8.173699 C.3        1 UNL1     0.1322
     17 O         -3.488207   0.719666   6.943571 O.3        1 UNL1     -0.4828
     18 C         -5.608246   1.459496   8.048449 C.ar        1 UNL1     -0.0067
     19 C         -5.995254   2.012308   6.810372 C.ar        1 UNL1     -0.0516
     20 C         -7.215989   2.683954   6.673768 C.ar        1 UNL1     -0.0198
     21 C         -8.053356   2.815624   7.767069 C.ar        1 UNL1     0.1169
     22 C         -7.715105   2.252978   8.990937 C.ar        1 UNL1     -0.0198
     23 C         -6.502807   1.565292   9.123141 C.ar        1 UNL1     -0.0516
     24 O         -9.216756   3.50903   7.605543 O.3        1 UNL1     -0.5068
     25 O         -5.706184   -2.434205   8.314627 O.2        1 UNL1     -0.2917
     26 O         -5.743785   -3.406967   5.800497 O.3        1 UNL1     -0.5058
     27 O         -0.21795   -0.177242   2.543819 O.3        1 UNL1     -0.3648
     28 O         0.280791   -1.955024   -0.556654 O.3        1 UNL1     -0.3841
     29 O         -2.463967   0.331206   -0.256153 O.3        1 UNL1     -0.3863
     30 O         -2.418124   -3.341835   -0.173841 O.3        1 UNL1     -0.3829
     31 H         0.647429   -1.826114   1.829445 H        1 UNL1     0.0937
     32 H         0.0   0.0   0.0 H        1 UNL1     0.0671
     33 H         -1.861435   -1.224094   -1.39709 H        1 UNL1     0.0649
     34 H         -3.825845   -1.871486   0.087556 H        1 UNL1     0.0683
     35 H         -3.164749   -2.954276   2.18631 H        1 UNL1     0.1085
     36 H         -4.785205   -2.981193   3.475169 H        1 UNL1     0.0691
     37 H         -2.7713   0.698225   4.49314 H        1 UNL1     0.0691
     38 H         -3.294707   -0.972124   9.04381 H        1 UNL1     0.0385
     39 H         -4.858   -0.570344   9.78085 H        1 UNL1     0.0385
     40 H         -3.651406   1.431375   8.828693 H        1 UNL1     0.0789
     41 H         -5.351519   1.930355   5.93943 H        1 UNL1     0.0623
     42 H         -7.497757   3.116224   5.716814 H        1 UNL1     0.0654
     43 H         -8.370297   2.337154   9.849744 H        1 UNL1     0.0654
     44 H         -6.275411   1.1292   10.091108 H        1 UNL1     0.0623
     45 H         -8.998339   4.416395   7.337776 H        1 UNL1     0.2921
     46 H         -5.333278   -3.913055   6.519364 H        1 UNL1     0.2922
     47 H         0.520245   0.380242   2.260731 H        1 UNL1     0.2126
     48 H         1.213907   -1.881184   -0.278132 H        1 UNL1     0.2101
     49 H         -2.031176   0.913128   -0.90102 H        1 UNL1     0.2100
     50 H         -2.674729   -3.371915   -1.118807 H        1 UNL1     0.2102
@<TRIPOS>BOND
     1     1     2    1
     2     1     6    1
     3     2     3    1
     4     3     4    1
     5     3    29    1
     6     3    33    1
     7     4     5    1
     8     5     6    1
     9     5     7    1
    10     5    35    1
    11     7     8    1
    12     8     9   ar
    13     8    13   ar
    14     9    10   ar
    15     9    36    1
    16    10    11   ar
    17    10    26    1
    18    11    12   ar
    19    11    14    1
    20    12    13   ar
    21    12    17    1
    22    13    37    1
    23    14    15    1
    24    14    25    2
    25    15    16    1
    26    15    38    1
    27    15    39    1
    28    16    17    1
    29    16    18    1
    30    16    40    1
    31    18    19   ar
    32    18    23   ar
    33    19    20   ar
    34    19    41    1
    35    20    21   ar
    36    20    42    1
    37    21    22   ar
    38    21    24    1
    39    22    23   ar
    40    22    43    1
    41    23    44    1
    42    24    45    1
    43    26    46    1
    44    27    47    1
    45    28    48    1
    46    29    49    1
    47    30    50    1
    48     1    31    1
    49     1    27    1
    50     2    32    1
    51     2    28    1
    52     4    34    1
    53     4    30    1
