@<TRIPOS>MOLECULE
*****
 50 53 0 0 0
SMALL
GASTEIGER

@<TRIPOS>ATOM
     1 C         -0.336672   -1.330165   1.699446 C.3        1 UNL1     0.1889
     2 C         -0.465018   -0.97456   0.193786 C.3        1 UNL1     0.1342
     3 C         -1.905373   -0.957636   -0.340589 C.3        1 UNL1     0.1174
     4 C         -2.794829   -2.015743   0.316978 C.3        1 UNL1     0.1456
     5 C         -2.644553   -2.043849   1.848967 C.3        1 UNL1     0.2326
     6 O         -1.28049   -2.265835   2.199571 O.3        1 UNL1     -0.3076
     7 O         -3.217195   -0.896409   2.502253 O.3        1 UNL1     -0.4605
     8 C         -3.728306   -1.112548   3.769368 C.ar        1 UNL1     0.1310
     9 C         -4.547433   -2.184162   4.140817 C.ar        1 UNL1     0.0226
     10 C         -5.001648   -2.325439   5.457491 C.ar        1 UNL1     0.1343
     11 C         -4.627865   -1.410626   6.440976 C.ar        1 UNL1     0.1007
     12 C         -3.843876   -0.313835   6.073287 C.ar        1 UNL1     0.1389
     13 C         -3.389469   -0.170564   4.748742 C.ar        1 UNL1     0.0229
     14 C         -5.009865   -1.55768   7.864565 C.2        1 UNL1     0.1740
     15 C         -4.339369   -0.612426   8.817707 C.3        1 UNL1     0.0520
     16 C         -4.2664   0.760362   8.163424 C.3        1 UNL1     0.1322
     17 O         -3.507099   0.703559   6.9357 O.3        1 UNL1     -0.4828
     18 C         -5.623934   1.45615   8.038102 C.ar        1 UNL1     -0.0067
     19 C         -6.000846   2.021693   6.802662 C.ar        1 UNL1     -0.0516
     20 C         -7.214421   2.706268   6.666447 C.ar        1 UNL1     -0.0198
     21 C         -8.054568   2.838231   7.757579 C.ar        1 UNL1     0.1169
     22 C         -7.726452   2.263437   8.978558 C.ar        1 UNL1     -0.0198
     23 C         -6.521454   1.562938   9.110226 C.ar        1 UNL1     -0.0516
     24 O         -9.210504   3.544182   7.596813 O.3        1 UNL1     -0.5068
     25 O         -5.761005   -2.438227   8.275553 O.2        1 UNL1     -0.2917
     26 O         -5.798669   -3.39233   5.754284 O.3        1 UNL1     -0.5058
     27 O         -0.229248   -0.193521   2.541639 O.3        1 UNL1     -0.3648
     28 O         0.263723   -1.953603   -0.569836 O.3        1 UNL1     -0.3841
     29 O         -2.459623   0.357237   -0.26283 O.3        1 UNL1     -0.3863
     30 O         -2.450068   -3.316577   -0.207101 O.3        1 UNL1     -0.3829
     31 H         0.622622   -1.845592   1.818476 H        1 UNL1     0.0937
     32 H         0.0   0.0   0.0 H        1 UNL1     0.0671
     33 H         -1.868064   -1.195597   -1.412831 H        1 UNL1     0.0649
     34 H         -3.844294   -1.834405   0.059798 H        1 UNL1     0.0683
     35 H         -3.201739   -2.938816   2.153037 H        1 UNL1     0.1085
     36 H         -4.82722   -2.959154   3.435673 H        1 UNL1     0.0691
     37 H         -2.781219   0.692834   4.487842 H        1 UNL1     0.0691
     38 H         -3.338084   -1.005224   9.024264 H        1 UNL1     0.0385
     39 H         -4.90013   -0.593459   9.758433 H        1 UNL1     0.0385
     40 H         -3.670413   1.403158   8.82534 H        1 UNL1     0.0789
     41 H         -5.354671   1.939734   5.93353 H        1 UNL1     0.0623
     42 H         -7.488339   3.148207   5.711633 H        1 UNL1     0.0654
     43 H         -8.384015   2.347818   9.835529 H        1 UNL1     0.0654
     44 H         -6.301985   1.11763   10.075824 H        1 UNL1     0.0623
     45 H         -8.982191   4.451393   7.336894 H        1 UNL1     0.2921
     46 H         -5.39632   -3.907088   6.471607 H        1 UNL1     0.2922
     47 H         0.515432   0.358723   2.265346 H        1 UNL1     0.2126
     48 H         1.196447   -1.891012   -0.287276 H        1 UNL1     0.2101
     49 H         -2.018789   0.939517   -0.9019 H        1 UNL1     0.2100
     50 H         -2.682571   -3.329564   -1.158671 H        1 UNL1     0.2102
@<TRIPOS>BOND
     1     1     2    1
     2     1     6    1
     3     2     3    1
     4     3     4    1
     5     3    29    1
     6     3    33    1
     7     4     5    1
     8     5     6    1
     9     5     7    1
    10     5    35    1
    11     7     8    1
    12     8     9   ar
    13     8    13   ar
    14     9    10   ar
    15     9    36    1
    16    10    11   ar
    17    10    26    1
    18    11    12   ar
    19    11    14    1
    20    12    13   ar
    21    12    17    1
    22    13    37    1
    23    14    15    1
    24    14    25    2
    25    15    16    1
    26    15    38    1
    27    15    39    1
    28    16    17    1
    29    16    18    1
    30    16    40    1
    31    18    19   ar
    32    18    23   ar
    33    19    20   ar
    34    19    41    1
    35    20    21   ar
    36    20    42    1
    37    21    22   ar
    38    21    24    1
    39    22    23   ar
    40    22    43    1
    41    23    44    1
    42    24    45    1
    43    26    46    1
    44    27    47    1
    45    28    48    1
    46    29    49    1
    47    30    50    1
    48     1    31    1
    49     1    27    1
    50     2    32    1
    51     2    28    1
    52     4    34    1
    53     4    30    1
