@<TRIPOS>MOLECULE
*****
 50 53 0 0 0
SMALL
GASTEIGER

@<TRIPOS>ATOM
     1 C         -0.371934   -1.347953   1.677943 C.3        1 UNL1     0.1889
     2 C         -0.48284   -0.969151   0.17656 C.3        1 UNL1     0.1342
     3 C         -1.918609   -0.920305   -0.368092 C.3        1 UNL1     0.1174
     4 C         -2.830742   -1.972283   0.26789 C.3        1 UNL1     0.1456
     5 C         -2.692588   -2.024407   1.800391 C.3        1 UNL1     0.2326
     6 O         -1.33516   -2.274395   2.157834 O.3        1 UNL1     -0.3076
     7 O         -3.250742   -0.876687   2.465616 O.3        1 UNL1     -0.4605
     8 C         -3.775448   -1.101959   3.725562 C.ar        1 UNL1     0.1310
     9 C         -4.615616   -2.164527   4.075373 C.ar        1 UNL1     0.0226
     10 C         -5.082552   -2.316633   5.386379 C.ar        1 UNL1     0.1343
     11 C         -4.701018   -1.422385   6.385675 C.ar        1 UNL1     0.1007
     12 C         -3.895582   -0.334098   6.039714 C.ar        1 UNL1     0.1389
     13 C         -3.428358   -0.17989   4.720869 C.ar        1 UNL1     0.0229
     14 C         -5.096694   -1.583019   7.804051 C.2        1 UNL1     0.1740
     15 C         -4.41774   -0.662995   8.775713 C.3        1 UNL1     0.0520
     16 C         -4.316236   0.71747   8.141702 C.3        1 UNL1     0.1322
     17 O         -3.548344   0.665055   6.919138 O.3        1 UNL1     -0.4828
     18 C         -5.66069   1.438134   8.015958 C.ar        1 UNL1     -0.0067
     19 C         -6.016929   2.029917   6.78669 C.ar        1 UNL1     -0.0516
     20 C         -7.217541   2.737105   6.651124 C.ar        1 UNL1     -0.0198
     21 C         -8.065107   2.865627   7.736914 C.ar        1 UNL1     0.1169
     22 C         -7.757682   2.265658   8.951149 C.ar        1 UNL1     -0.0198
     23 C         -6.565872   1.54277   9.081834 C.ar        1 UNL1     -0.0516
     24 O         -9.207511   3.593604   7.577652 O.3        1 UNL1     -0.5068
     25 O         -5.865944   -2.456293   8.196647 O.2        1 UNL1     -0.2917
     26 O         -5.899948   -3.373801   5.66178 O.3        1 UNL1     -0.5058
     27 O         -0.251754   -0.225213   2.536894 O.3        1 UNL1     -0.3648
     28 O         0.235062   -1.949616   -0.595457 O.3        1 UNL1     -0.3841
     29 O         -2.451186   0.402563   -0.275818 O.3        1 UNL1     -0.3863
     30 O         -2.503996   -3.271305   -0.271988 O.3        1 UNL1     -0.3829
     31 H         0.577603   -1.881199   1.796716 H        1 UNL1     0.0937
     32 H         0.0   0.0   0.0 H        1 UNL1     0.0671
     33 H         -1.877184   -1.143811   -1.443289 H        1 UNL1     0.0649
     34 H         -3.875019   -1.769579   0.005595 H        1 UNL1     0.0683
     35 H         -3.267074   -2.913966   2.087669 H        1 UNL1     0.1085
     36 H         -4.902987   -2.924543   3.357101 H        1 UNL1     0.0691
     37 H         -2.803449   0.676563   4.477002 H        1 UNL1     0.0691
     38 H         -3.424953   -1.075787   8.984287 H        1 UNL1     0.0385
     39 H         -4.985506   -0.647745   9.712296 H        1 UNL1     0.0385
     40 H         -3.714631   1.340514   8.817282 H        1 UNL1     0.0789
     41 H         -5.36445   1.951084   5.921989 H        1 UNL1     0.0623
     42 H         -7.475402   3.199027   5.701309 H        1 UNL1     0.0654
     43 H         -8.421397   2.347304   9.803631 H        1 UNL1     0.0654
     44 H         -6.362602   1.07823   10.041901 H        1 UNL1     0.0623
     45 H         -8.961428   4.503177   7.343481 H        1 UNL1     0.2921
     46 H         -5.512956   -3.90452   6.375913 H        1 UNL1     0.2922
     47 H         0.501623   0.320434   2.271278 H        1 UNL1     0.2126
     48 H         1.170229   -1.892555   -0.319886 H        1 UNL1     0.2101
     49 H         -2.001599   0.984248   -0.909307 H        1 UNL1     0.2100
     50 H         -2.734725   -3.268851   -1.224076 H        1 UNL1     0.2102
@<TRIPOS>BOND
     1     1     2    1
     2     1     6    1
     3     2     3    1
     4     3     4    1
     5     3    29    1
     6     3    33    1
     7     4     5    1
     8     5     6    1
     9     5     7    1
    10     5    35    1
    11     7     8    1
    12     8     9   ar
    13     8    13   ar
    14     9    10   ar
    15     9    36    1
    16    10    11   ar
    17    10    26    1
    18    11    12   ar
    19    11    14    1
    20    12    13   ar
    21    12    17    1
    22    13    37    1
    23    14    15    1
    24    14    25    2
    25    15    16    1
    26    15    38    1
    27    15    39    1
    28    16    17    1
    29    16    18    1
    30    16    40    1
    31    18    19   ar
    32    18    23   ar
    33    19    20   ar
    34    19    41    1
    35    20    21   ar
    36    20    42    1
    37    21    22   ar
    38    21    24    1
    39    22    23   ar
    40    22    43    1
    41    23    44    1
    42    24    45    1
    43    26    46    1
    44    27    47    1
    45    28    48    1
    46    29    49    1
    47    30    50    1
    48     1    31    1
    49     1    27    1
    50     2    32    1
    51     2    28    1
    52     4    34    1
    53     4    30    1
