@<TRIPOS>MOLECULE
*****
 50 53 0 0 0
SMALL
GASTEIGER

@<TRIPOS>ATOM
     1 C         -0.378827   -1.38889   1.642644 C.3        1 UNL1     0.1889
     2 C         -0.489154   -0.97017   0.151858 C.3        1 UNL1     0.1342
     3 C         -1.92528   -0.897416   -0.389173 C.3        1 UNL1     0.1174
     4 C         -2.84367   -1.959521   0.220425 C.3        1 UNL1     0.1456
     5 C         -2.703842   -2.052681   1.750828 C.3        1 UNL1     0.2326
     6 O         -1.347666   -2.321074   2.099568 O.3        1 UNL1     -0.3076
     7 O         -3.253335   -0.919041   2.446701 O.3        1 UNL1     -0.4605
     8 C         -3.788098   -1.175729   3.696368 C.ar        1 UNL1     0.1310
     9 C         -4.633693   -2.244692   4.011945 C.ar        1 UNL1     0.0226
     10 C         -5.110879   -2.429743   5.315 C.ar        1 UNL1     0.1343
     11 C         -4.734499   -1.563059   6.340201 C.ar        1 UNL1     0.1007
     12 C         -3.923596   -0.468387   6.028888 C.ar        1 UNL1     0.1389
     13 C         -3.446058   -0.281031   4.718054 C.ar        1 UNL1     0.0229
     14 C         -5.141257   -1.759649   7.750893 C.2        1 UNL1     0.1740
     15 C         -4.467191   -0.867323   8.751362 C.3        1 UNL1     0.0520
     16 C         -4.357256   0.528976   8.154518 C.3        1 UNL1     0.1322
     17 O         -3.580331   0.506402   6.936755 O.3        1 UNL1     -0.4828
     18 C         -5.698807   1.256516   8.03769 C.ar        1 UNL1     -0.0067
     19 C         -5.790107   2.417455   7.242644 C.ar        1 UNL1     -0.0516
     20 C         -6.989708   3.133489   7.152009 C.ar        1 UNL1     -0.0198
     21 C         -8.10058   2.704008   7.855812 C.ar        1 UNL1     0.1169
     22 C         -8.051117   1.545751   8.620556 C.ar        1 UNL1     -0.0198
     23 C         -6.856781   0.819238   8.696689 C.ar        1 UNL1     -0.0516
     24 O         -9.240745   3.448053   7.773223 O.3        1 UNL1     -0.5068
     25 O         -5.915755   -2.640706   8.114729 O.2        1 UNL1     -0.2917
     26 O         -5.933127   -3.491424   5.556506 O.3        1 UNL1     -0.5058
     27 O         -0.249914   -0.289858   2.530505 O.3        1 UNL1     -0.3648
     28 O         0.221073   -1.934895   -0.646633 O.3        1 UNL1     -0.3841
     29 O         -2.448768   0.426138   -0.261509 O.3        1 UNL1     -0.3863
     30 O         -2.526438   -3.246132   -0.353757 O.3        1 UNL1     -0.3829
     31 H         0.567235   -1.931443   1.745995 H        1 UNL1     0.0937
     32 H         0.0   0.0   0.0 H        1 UNL1     0.0671
     33 H         -1.886792   -1.092967   -1.469913 H        1 UNL1     0.0649
     34 H         -3.886897   -1.742994   -0.034907 H        1 UNL1     0.0683
     35 H         -3.283956   -2.945569   2.015587 H        1 UNL1     0.1085
     36 H         -4.91767   -2.984817   3.271882 H        1 UNL1     0.0691
     37 H         -2.81706   0.579728   4.501376 H        1 UNL1     0.0691
     38 H         -3.4771   -1.288264   8.956438 H        1 UNL1     0.0385
     39 H         -5.041943   -0.874983   9.683767 H        1 UNL1     0.0385
     40 H         -3.759097   1.132398   8.850656 H        1 UNL1     0.0789
     41 H         -4.929818   2.780304   6.687762 H        1 UNL1     0.0623
     42 H         -7.044157   4.033853   6.545057 H        1 UNL1     0.0654
     43 H         -8.919314   1.192107   9.163768 H        1 UNL1     0.0654
     44 H         -6.856979   -0.086759   9.295031 H        1 UNL1     0.0623
     45 H         -9.07244   4.313357   8.18021 H        1 UNL1     0.2921
     46 H         -5.564132   -4.029626   6.274553 H        1 UNL1     0.2922
     47 H         0.496761   0.266561   2.268336 H        1 UNL1     0.2126
     48 H         1.172662   -1.782788   -0.488289 H        1 UNL1     0.2101
     49 H         -1.996333   1.021099   -0.880475 H        1 UNL1     0.2100
     50 H         -2.779397   -3.224678   -1.299941 H        1 UNL1     0.2102
@<TRIPOS>BOND
     1     1     2    1
     2     1     6    1
     3     2     3    1
     4     3     4    1
     5     3    29    1
     6     3    33    1
     7     4     5    1
     8     5     6    1
     9     5     7    1
    10     5    35    1
    11     7     8    1
    12     8     9   ar
    13     8    13   ar
    14     9    10   ar
    15     9    36    1
    16    10    11   ar
    17    10    26    1
    18    11    12   ar
    19    11    14    1
    20    12    13   ar
    21    12    17    1
    22    13    37    1
    23    14    15    1
    24    14    25    2
    25    15    16    1
    26    15    38    1
    27    15    39    1
    28    16    17    1
    29    16    18    1
    30    16    40    1
    31    18    19   ar
    32    18    23   ar
    33    19    20   ar
    34    19    41    1
    35    20    21   ar
    36    20    42    1
    37    21    22   ar
    38    21    24    1
    39    22    23   ar
    40    22    43    1
    41    23    44    1
    42    24    45    1
    43    26    46    1
    44    27    47    1
    45    28    48    1
    46    29    49    1
    47    30    50    1
    48     1    31    1
    49     1    27    1
    50     2    32    1
    51     2    28    1
    52     4    34    1
    53     4    30    1
