@<TRIPOS>MOLECULE
*****
 50 53 0 0 0
SMALL
GASTEIGER

@<TRIPOS>ATOM
     1 C         0.301841   -0.398353   -2.126267 C.3        1 UNL1     0.1889
     2 C         -0.537959   0.154645   -0.943529 C.3        1 UNL1     0.1342
     3 C         -1.946784   -0.445983   -0.821367 C.3        1 UNL1     0.1174
     4 C         -2.577185   -0.761803   -2.180032 C.3        1 UNL1     0.1456
     5 C         -1.609141   -1.499965   -3.122568 C.3        1 UNL1     0.2326
     6 O         -0.422913   -0.729468   -3.301635 O.3        1 UNL1     -0.3076
     7 O         -1.347058   -2.858368   -2.725864 O.3        1 UNL1     -0.4605
     8 C         -1.321799   -3.793391   -3.744993 C.ar        1 UNL1     0.1310
     9 C         -1.48344   -3.513073   -5.106093 C.ar        1 UNL1     0.0226
     10 C         -1.424586   -4.530025   -6.06643 C.ar        1 UNL1     0.1343
     11 C         -1.17869   -5.849942   -5.690672 C.ar        1 UNL1     0.1007
     12 C         -1.056486   -6.148301   -4.330954 C.ar        1 UNL1     0.1389
     13 C         -1.118337   -5.125972   -3.36532 C.ar        1 UNL1     0.0229
     14 C         -1.023141   -6.950382   -6.669952 C.2        1 UNL1     0.1740
     15 C         -0.542402   -8.256158   -6.108358 C.3        1 UNL1     0.0520
     16 C         -1.231989   -8.48852   -4.771034 C.3        1 UNL1     0.1322
     17 O         -0.920381   -7.426884   -3.842111 O.3        1 UNL1     -0.4828
     18 C         -2.724223   -8.806003   -4.894182 C.ar        1 UNL1     -0.0067
     19 C         -3.130933   -9.963669   -5.588883 C.ar        1 UNL1     -0.0516
     20 C         -4.488703   -10.258444   -5.760733 C.ar        1 UNL1     -0.0198
     21 C         -5.447338   -9.401611   -5.250161 C.ar        1 UNL1     0.1169
     22 C         -5.077973   -8.271402   -4.532501 C.ar        1 UNL1     -0.0198
     23 C         -3.720272   -7.986107   -4.344589 C.ar        1 UNL1     -0.0516
     24 O         -6.75966   -9.701511   -5.469868 O.3        1 UNL1     -0.5068
     25 O         -1.191745   -6.809011   -7.878286 O.2        1 UNL1     -0.2917
     26 O         -1.591381   -4.190268   -7.377281 O.3        1 UNL1     -0.5058
     27 O         1.192681   -1.436562   -1.750353 O.3        1 UNL1     -0.3648
     28 O         -0.691662   1.5754   -1.118278 O.3        1 UNL1     -0.3841
     29 O         -1.944265   -1.569211   0.062083 O.3        1 UNL1     -0.3863
     30 O         -2.988141   0.471214   -2.809693 O.3        1 UNL1     -0.3829
     31 H         0.958588   0.415972   -2.451286 H        1 UNL1     0.0937
     32 H         0.0   0.0   0.0 H        1 UNL1     0.0671
     33 H         -2.590053   0.303177   -0.338993 H        1 UNL1     0.0649
     34 H         -3.479668   -1.367469   -2.041851 H        1 UNL1     0.0683
     35 H         -2.133   -1.507716   -4.086617 H        1 UNL1     0.1085
     36 H         -1.621617   -2.499813   -5.467109 H        1 UNL1     0.0691
     37 H         -1.021295   -5.384596   -2.31309 H        1 UNL1     0.0691
     38 H         0.543529   -8.184099   -5.985519 H        1 UNL1     0.0385
     39 H         -0.75303   -9.055332   -6.827201 H        1 UNL1     0.0385
     40 H         -0.780015   -9.384886   -4.325199 H        1 UNL1     0.0789
     41 H         -2.397894   -10.64736   -6.00706 H        1 UNL1     0.0623
     42 H         -4.78968   -11.147966   -6.308615 H        1 UNL1     0.0654
     43 H         -5.82048   -7.60159   -4.115432 H        1 UNL1     0.0654
     44 H         -3.467786   -7.100303   -3.769744 H        1 UNL1     0.0623
     45 H         -6.875325   -9.898962   -6.413452 H        1 UNL1     0.2921
     46 H         -1.951824   -3.2913   -7.435148 H        1 UNL1     0.2922
     47 H         0.699046   -2.189518   -1.396459 H        1 UNL1     0.2126
     48 H         0.072293   1.876441   -1.646937 H        1 UNL1     0.2101
     49 H         -2.504893   -2.274294   -0.298955 H        1 UNL1     0.2100
     50 H         -2.332725   0.687817   -3.504838 H        1 UNL1     0.2102
@<TRIPOS>BOND
     1     1     2    1
     2     1     6    1
     3     2     3    1
     4     3     4    1
     5     3    29    1
     6     3    33    1
     7     4     5    1
     8     5     6    1
     9     5     7    1
    10     5    35    1
    11     7     8    1
    12     8     9   ar
    13     8    13   ar
    14     9    10   ar
    15     9    36    1
    16    10    11   ar
    17    10    26    1
    18    11    12   ar
    19    11    14    1
    20    12    13   ar
    21    12    17    1
    22    13    37    1
    23    14    15    1
    24    14    25    2
    25    15    16    1
    26    15    38    1
    27    15    39    1
    28    16    17    1
    29    16    18    1
    30    16    40    1
    31    18    19   ar
    32    18    23   ar
    33    19    20   ar
    34    19    41    1
    35    20    21   ar
    36    20    42    1
    37    21    22   ar
    38    21    24    1
    39    22    23   ar
    40    22    43    1
    41    23    44    1
    42    24    45    1
    43    26    46    1
    44    27    47    1
    45    28    48    1
    46    29    49    1
    47    30    50    1
    48     1    31    1
    49     1    27    1
    50     2    32    1
    51     2    28    1
    52     4    34    1
    53     4    30    1
