@<TRIPOS>MOLECULE
*****
 50 53 0 0 0
SMALL
GASTEIGER

@<TRIPOS>ATOM
     1 C         -0.001827   -1.105296   1.883911 C.3        1 UNL1     0.1889
     2 C         -0.264433   -1.002979   0.357311 C.3        1 UNL1     0.1342
     3 C         -1.705643   -1.322736   -0.068287 C.3        1 UNL1     0.1174
     4 C         -2.349288   -2.415027   0.789467 C.3        1 UNL1     0.1456
     5 C         -2.125376   -2.190948   2.296124 C.3        1 UNL1     0.2326
     6 O         -0.729093   -2.11128   2.57346 O.3        1 UNL1     -0.3076
     7 O         -2.872106   -1.081445   2.827836 O.3        1 UNL1     -0.4605
     8 C         -3.274149   -1.19754   4.146324 C.ar        1 UNL1     0.1310
     9 C         -3.859554   -2.332309   4.718077 C.ar        1 UNL1     0.0226
     10 C         -4.217515   -2.358124   6.071259 C.ar        1 UNL1     0.1343
     11 C         -3.976678   -1.257077   6.891949 C.ar        1 UNL1     0.1007
     12 C         -3.430298   -0.103556   6.323055 C.ar        1 UNL1     0.1389
     13 C         -3.072888   -0.07692   4.961813 C.ar        1 UNL1     0.0229
     14 C         -4.257733   -1.259913   8.346306 C.2        1 UNL1     0.1740
     15 C         -3.732897   -0.080569   9.111319 C.3        1 UNL1     0.0520
     16 C         -3.949225   1.172144   8.273543 C.3        1 UNL1     0.1322
     17 O         -3.250639   1.072919   7.012907 O.3        1 UNL1     -0.4828
     18 C         -5.417511   1.587605   8.154151 C.ar        1 UNL1     -0.0067
     19 C         -5.95082   1.889256   6.88419 C.ar        1 UNL1     -0.0516
     20 C         -7.276264   2.317989   6.745087 C.ar        1 UNL1     -0.0198
     21 C         -8.074618   2.455841   7.86645 C.ar        1 UNL1     0.1169
     22 C         -7.588122   2.134332   9.126924 C.ar        1 UNL1     -0.0198
     23 C         -6.268318   1.687905   9.264314 C.ar        1 UNL1     -0.0516
     24 O         -9.34866   2.912091   7.696002 O.3        1 UNL1     -0.5068
     25 O         -4.810435   -2.190832   8.926302 O.2        1 UNL1     -0.2917
     26 O         -4.785585   -3.495281   6.566996 O.3        1 UNL1     -0.5058
     27 O         -0.070507   0.143161   2.554303 O.3        1 UNL1     -0.3648
     28 O         0.598736   -1.936874   -0.317586 O.3        1 UNL1     -0.3841
     29 O         -2.492482   -0.131394   -0.129278 O.3        1 UNL1     -0.3863
     30 O         -1.791364   -3.695631   0.422773 O.3        1 UNL1     -0.3829
     31 H         1.041601   -1.417521   2.001606 H        1 UNL1     0.0937
     32 H         0.0   0.0   0.0 H        1 UNL1     0.0671
     33 H         -1.67423   -1.704697   -1.098257 H        1 UNL1     0.0649
     34 H         -3.424936   -2.464217   0.587077 H        1 UNL1     0.0683
     35 H         -2.490044   -3.116834   2.758325 H        1 UNL1     0.1085
     36 H         -4.021459   -3.239708   4.146644 H        1 UNL1     0.0691
     37 H         -2.65019   0.833725   4.542831 H        1 UNL1     0.0691
     38 H         -2.667206   -0.253147   9.295835 H        1 UNL1     0.0385
     39 H         -4.242926   -0.024663   10.07906 H        1 UNL1     0.0385
     40 H         -3.454292   2.001218   8.797182 H        1 UNL1     0.0789
     41 H         -5.341844   1.797853   5.989514 H        1 UNL1     0.0623
     42 H         -7.672291   2.558958   5.761671 H        1 UNL1     0.0654
     43 H         -8.209292   2.224271   10.010082 H        1 UNL1     0.0654
     44 H         -5.924579   1.43549   10.2628 H        1 UNL1     0.0623
     45 H         -9.306892   3.797761   7.300323 H        1 UNL1     0.2921
     46 H         -4.261118   -3.818708   7.316491 H        1 UNL1     0.2922
     47 H         0.543577   0.773321   2.152236 H        1 UNL1     0.2126
     48 H         1.515271   -1.667137   -0.115256 H        1 UNL1     0.2101
     49 H         -2.198885   0.420363   -0.871679 H        1 UNL1     0.2100
     50 H         -2.06127   -3.88935   -0.498821 H        1 UNL1     0.2102
@<TRIPOS>BOND
     1     1     2    1
     2     1     6    1
     3     2     3    1
     4     3     4    1
     5     3    29    1
     6     3    33    1
     7     4     5    1
     8     5     6    1
     9     5     7    1
    10     5    35    1
    11     7     8    1
    12     8     9   ar
    13     8    13   ar
    14     9    10   ar
    15     9    36    1
    16    10    11   ar
    17    10    26    1
    18    11    12   ar
    19    11    14    1
    20    12    13   ar
    21    12    17    1
    22    13    37    1
    23    14    15    1
    24    14    25    2
    25    15    16    1
    26    15    38    1
    27    15    39    1
    28    16    17    1
    29    16    18    1
    30    16    40    1
    31    18    19   ar
    32    18    23   ar
    33    19    20   ar
    34    19    41    1
    35    20    21   ar
    36    20    42    1
    37    21    22   ar
    38    21    24    1
    39    22    23   ar
    40    22    43    1
    41    23    44    1
    42    24    45    1
    43    26    46    1
    44    27    47    1
    45    28    48    1
    46    29    49    1
    47    30    50    1
    48     1    31    1
    49     1    27    1
    50     2    32    1
    51     2    28    1
    52     4    34    1
    53     4    30    1
