@<TRIPOS>MOLECULE
*****
 50 53 0 0 0
SMALL
GASTEIGER

@<TRIPOS>ATOM
     1 C         -0.083361   -1.033564   1.922394 C.3        1 UNL1     0.1889
     2 C         -0.559327   -0.824274   0.459659 C.3        1 UNL1     0.1342
     3 C         -2.064233   -0.554983   0.307325 C.3        1 UNL1     0.1174
     4 C         -2.910207   -1.318361   1.329431 C.3        1 UNL1     0.1456
     5 C         -2.347655   -1.21173   2.758602 C.3        1 UNL1     0.2326
     6 O         -1.002499   -1.683494   2.787942 O.3        1 UNL1     -0.3076
     7 O         -2.501365   0.096247   3.339023 O.3        1 UNL1     -0.4605
     8 C         -2.670278   0.134413   4.711444 C.ar        1 UNL1     0.1310
     9 C         -3.531803   -0.688318   5.445058 C.ar        1 UNL1     0.0226
     10 C         -3.619855   -0.584409   6.838383 C.ar        1 UNL1     0.1343
     11 C         -2.830154   0.329408   7.534912 C.ar        1 UNL1     0.1007
     12 C         -1.996246   1.184562   6.809589 C.ar        1 UNL1     0.1389
     13 C         -1.909843   1.081691   5.408382 C.ar        1 UNL1     0.0229
     14 C         -2.821371   0.423733   9.013147 C.2        1 UNL1     0.1740
     15 C         -1.754616   1.29975   9.601516 C.3        1 UNL1     0.0520
     16 C         -1.622065   2.545075   8.735749 C.3        1 UNL1     0.1322
     17 O         -1.256773   2.192762   7.383156 O.3        1 UNL1     -0.4828
     18 C         -2.813718   3.499655   8.842822 C.ar        1 UNL1     -0.0067
     19 C         -3.411644   3.995655   7.666097 C.ar        1 UNL1     -0.0516
     20 C         -4.47246   4.907099   7.728568 C.ar        1 UNL1     -0.0198
     21 C         -4.938573   5.334965   8.958811 C.ar        1 UNL1     0.1169
     22 C         -4.392375   4.83895   10.135448 C.ar        1 UNL1     -0.0198
     23 C         -3.343766   3.913411   10.07337 C.ar        1 UNL1     -0.0516
     24 O         -5.947988   6.252044   8.979953 O.3        1 UNL1     -0.5068
     25 O         -3.573569   -0.223973   9.736444 O.2        1 UNL1     -0.2917
     26 O         -4.480418   -1.415434   7.494441 O.3        1 UNL1     -0.5058
     27 O         0.455353   0.137661   2.514684 O.3        1 UNL1     -0.3648
     28 O         -0.258836   -2.014517   -0.292494 O.3        1 UNL1     -0.3841
     29 O         -2.330582   0.849007   0.306628 O.3        1 UNL1     -0.3863
     30 O         -2.9631   -2.711972   0.95428 O.3        1 UNL1     -0.3829
     31 H         0.762935   -1.727854   1.879675 H        1 UNL1     0.0937
     32 H         0.0   0.0   0.0 H        1 UNL1     0.0671
     33 H         -2.369557   -0.910369   -0.686757 H        1 UNL1     0.0649
     34 H         -3.939748   -0.943801   1.317134 H        1 UNL1     0.0683
     35 H         -2.949089   -1.926901   3.333656 H        1 UNL1     0.1085
     36 H         -4.130431   -1.456522   4.967956 H        1 UNL1     0.0691
     37 H         -1.253863   1.759894   4.86688 H        1 UNL1     0.0691
     38 H         -0.822434   0.724897   9.611906 H        1 UNL1     0.0385
     39 H         -2.019048   1.541333   10.636645 H        1 UNL1     0.0385
     40 H         -0.760658   3.112057   9.113941 H        1 UNL1     0.0789
     41 H         -3.057968   3.682283   6.688159 H        1 UNL1     0.0623
     42 H         -4.917297   5.291395   6.813993 H        1 UNL1     0.0654
     43 H         -4.759746   5.15581   11.104235 H        1 UNL1     0.0654
     44 H         -2.947923   3.538769   11.012411 H        1 UNL1     0.0623
     45 H         -5.642246   7.055129   8.527964 H        1 UNL1     0.2921
     46 H         -3.99345   -1.923648   8.162268 H        1 UNL1     0.2922
     47 H         1.180061   0.482907   1.974811 H        1 UNL1     0.2126
     48 H         0.711261   -2.124029   -0.266986 H        1 UNL1     0.2101
     49 H         -1.987981   1.249495   -0.508251 H        1 UNL1     0.2100
     50 H         -3.449307   -2.77771   0.106345 H        1 UNL1     0.2102
@<TRIPOS>BOND
     1     1     2    1
     2     1     6    1
     3     2     3    1
     4     3     4    1
     5     3    29    1
     6     3    33    1
     7     4     5    1
     8     5     6    1
     9     5     7    1
    10     5    35    1
    11     7     8    1
    12     8     9   ar
    13     8    13   ar
    14     9    10   ar
    15     9    36    1
    16    10    11   ar
    17    10    26    1
    18    11    12   ar
    19    11    14    1
    20    12    13   ar
    21    12    17    1
    22    13    37    1
    23    14    15    1
    24    14    25    2
    25    15    16    1
    26    15    38    1
    27    15    39    1
    28    16    17    1
    29    16    18    1
    30    16    40    1
    31    18    19   ar
    32    18    23   ar
    33    19    20   ar
    34    19    41    1
    35    20    21   ar
    36    20    42    1
    37    21    22   ar
    38    21    24    1
    39    22    23   ar
    40    22    43    1
    41    23    44    1
    42    24    45    1
    43    26    46    1
    44    27    47    1
    45    28    48    1
    46    29    49    1
    47    30    50    1
    48     1    31    1
    49     1    27    1
    50     2    32    1
    51     2    28    1
    52     4    34    1
    53     4    30    1
