@<TRIPOS>MOLECULE
*****
 50 53 0 0 0
SMALL
GASTEIGER

@<TRIPOS>ATOM
     1 C         0.066778   -1.662149   1.415488 C.3        1 UNL1     0.1889
     2 C         -0.638995   -0.434917   0.778521 C.3        1 UNL1     0.1342
     3 C         -1.034701   0.665731   1.774742 C.3        1 UNL1     0.1174
     4 C         -1.457053   0.109475   3.136842 C.3        1 UNL1     0.1456
     5 C         -0.483509   -0.959759   3.665343 C.3        1 UNL1     0.2326
     6 O         -0.366161   -2.020264   2.719601 O.3        1 UNL1     -0.3076
     7 O         0.787801   -0.424593   4.076059 O.3        1 UNL1     -0.4605
     8 C         0.751572   0.508513   5.096612 C.ar        1 UNL1     0.1310
     9 C         0.669486   1.894532   4.924816 C.ar        1 UNL1     0.0226
     10 C         0.621033   2.758592   6.02525 C.ar        1 UNL1     0.1343
     11 C         0.629491   2.255636   7.325559 C.ar        1 UNL1     0.1007
     12 C         0.752607   0.875921   7.509982 C.ar        1 UNL1     0.1389
     13 C         0.803975   0.0075   6.403349 C.ar        1 UNL1     0.0229
     14 C         0.495951   3.117137   8.523115 C.2        1 UNL1     0.1740
     15 C         0.299759   2.39508   9.823766 C.3        1 UNL1     0.0520
     16 C         1.204046   1.170306   9.83606 C.3        1 UNL1     0.1322
     17 O         0.878925   0.281872   8.744249 O.3        1 UNL1     -0.4828
     18 C         2.692525   1.504596   9.960174 C.ar        1 UNL1     -0.0067
     19 C         3.089036   2.847106   10.129468 C.ar        1 UNL1     -0.0516
     20 C         4.443938   3.192638   10.198816 C.ar        1 UNL1     -0.0198
     21 C         5.409944   2.208021   10.09303 C.ar        1 UNL1     0.1169
     22 C         5.050111   0.873295   9.959372 C.ar        1 UNL1     -0.0198
     23 C         3.694961   0.525388   9.908521 C.ar        1 UNL1     -0.0516
     24 O         6.719841   2.58673   10.126941 O.3        1 UNL1     -0.5068
     25 O         0.463441   4.343898   8.473267 O.2        1 UNL1     -0.2917
     26 O         0.542596   4.100171   5.789453 O.3        1 UNL1     -0.5058
     27 O         1.481881   -1.607905   1.329888 O.3        1 UNL1     -0.3648
     28 O         -1.84611   -0.885519   0.136232 O.3        1 UNL1     -0.3841
     29 O         -0.006143   1.652741   1.874794 O.3        1 UNL1     -0.3863
     30 O         -2.772124   -0.476308   3.022229 O.3        1 UNL1     -0.3829
     31 H         -0.207053   -2.531076   0.807161 H        1 UNL1     0.0937
     32 H         0.0   0.0   0.0 H        1 UNL1     0.0671
     33 H         -1.906287   1.193333   1.362803 H        1 UNL1     0.0649
     34 H         -1.531186   0.923396   3.866526 H        1 UNL1     0.0683
     35 H         -0.994732   -1.371553   4.544523 H        1 UNL1     0.1085
     36 H         0.602895   2.344108   3.94015 H        1 UNL1     0.0691
     37 H         0.900908   -1.062573   6.573762 H        1 UNL1     0.0691
     38 H         -0.755206   2.107763   9.887201 H        1 UNL1     0.0385
     39 H         0.518219   3.079368   10.65069 H        1 UNL1     0.0385
     40 H         0.958873   0.595973   10.739693 H        1 UNL1     0.0789
     41 H         2.350225   3.639546   10.205936 H        1 UNL1     0.0623
     42 H         4.737231   4.232777   10.31757 H        1 UNL1     0.0654
     43 H         5.798188   0.092541   9.890714 H        1 UNL1     0.0654
     44 H         3.449806   -0.528105   9.814193 H        1 UNL1     0.0623
     45 H         6.866511   3.246431   9.429805 H        1 UNL1     0.2921
     46 H         -0.024823   4.513714   6.459102 H        1 UNL1     0.2922
     47 H         1.754911   -1.401663   0.425024 H        1 UNL1     0.2126
     48 H         -1.897696   -0.419689   -0.720549 H        1 UNL1     0.2101
     49 H         -0.350747   2.51747   1.600411 H        1 UNL1     0.2100
     50 H         -3.114855   -0.627334   3.927458 H        1 UNL1     0.2102
@<TRIPOS>BOND
     1     1     2    1
     2     1     6    1
     3     2     3    1
     4     3     4    1
     5     3    29    1
     6     3    33    1
     7     4     5    1
     8     5     6    1
     9     5     7    1
    10     5    35    1
    11     7     8    1
    12     8     9   ar
    13     8    13   ar
    14     9    10   ar
    15     9    36    1
    16    10    11   ar
    17    10    26    1
    18    11    12   ar
    19    11    14    1
    20    12    13   ar
    21    12    17    1
    22    13    37    1
    23    14    15    1
    24    14    25    2
    25    15    16    1
    26    15    38    1
    27    15    39    1
    28    16    17    1
    29    16    18    1
    30    16    40    1
    31    18    19   ar
    32    18    23   ar
    33    19    20   ar
    34    19    41    1
    35    20    21   ar
    36    20    42    1
    37    21    22   ar
    38    21    24    1
    39    22    23   ar
    40    22    43    1
    41    23    44    1
    42    24    45    1
    43    26    46    1
    44    27    47    1
    45    28    48    1
    46    29    49    1
    47    30    50    1
    48     1    31    1
    49     1    27    1
    50     2    32    1
    51     2    28    1
    52     4    34    1
    53     4    30    1
