@<TRIPOS>MOLECULE
*****
 50 53 0 0 0
SMALL
GASTEIGER

@<TRIPOS>ATOM
     1 C         -0.329825   -1.380515   1.660181 C.3        1 UNL1     0.1889
     2 C         -0.46674   -0.978695   0.166951 C.3        1 UNL1     0.1342
     3 C         -1.910434   -0.941332   -0.357277 C.3        1 UNL1     0.1174
     4 C         -2.798883   -2.016495   0.273437 C.3        1 UNL1     0.1456
     5 C         -2.638868   -2.091839   1.802843 C.3        1 UNL1     0.2326
     6 O         -1.273269   -2.328332   2.137623 O.3        1 UNL1     -0.3076
     7 O         -3.203801   -0.963269   2.494582 O.3        1 UNL1     -0.4605
     8 C         -3.718082   -1.218971   3.753018 C.ar        1 UNL1     0.1310
     9 C         -4.53712   -2.302318   4.088927 C.ar        1 UNL1     0.0226
     10 C         -4.994713   -2.484675   5.399369 C.ar        1 UNL1     0.1343
     11 C         -4.624485   -1.600375   6.411686 C.ar        1 UNL1     0.1007
     12 C         -3.84062   -0.492012   6.080217 C.ar        1 UNL1     0.1389
     13 C         -3.382816   -0.307418   4.761972 C.ar        1 UNL1     0.0229
     14 C         -5.010144   -1.791746   7.829006 C.2        1 UNL1     0.1740
     15 C         -4.343154   -0.875807   8.812738 C.3        1 UNL1     0.0520
     16 C         -4.269818   0.516629   8.201428 C.3        1 UNL1     0.1322
     17 O         -3.507178   0.498531   6.974593 O.3        1 UNL1     -0.4828
     18 C         -5.627712   1.214705   8.094014 C.ar        1 UNL1     -0.0067
     19 C         -5.752954   2.3657   7.28919 C.ar        1 UNL1     -0.0516
     20 C         -6.968384   3.055504   7.206353 C.ar        1 UNL1     -0.0198
     21 C         -8.061474   2.609674   7.927614 C.ar        1 UNL1     0.1169
     22 C         -7.978475   1.460189   8.702621 C.ar        1 UNL1     -0.0198
     23 C         -6.76826   0.759657   8.771121 C.ar        1 UNL1     -0.0516
     24 O         -9.21798   3.328806   7.851836 O.3        1 UNL1     -0.5068
     25 O         -5.761493   -2.685278   8.210529 O.2        1 UNL1     -0.2917
     26 O         -5.79145   -3.560972   5.660864 O.3        1 UNL1     -0.5058
     27 O         -0.21353   -0.270452   2.53598 O.3        1 UNL1     -0.3648
     28 O         0.254093   -1.93602   -0.630942 O.3        1 UNL1     -0.3841
     29 O         -2.460156   0.372129   -0.235791 O.3        1 UNL1     -0.3863
     30 O         -2.461465   -3.301685   -0.29236 O.3        1 UNL1     -0.3829
     31 H         0.628634   -1.902078   1.757169 H        1 UNL1     0.0937
     32 H         0.0   0.0   0.0 H        1 UNL1     0.0671
     33 H         -1.880732   -1.146518   -1.436507 H        1 UNL1     0.0649
     34 H         -3.849416   -1.824385   0.028748 H        1 UNL1     0.0683
     35 H         -3.196823   -2.994084   2.083054 H        1 UNL1     0.1085
     36 H         -4.814238   -3.055387   3.359398 H        1 UNL1     0.0691
     37 H         -2.77474   0.564199   4.529547 H        1 UNL1     0.0691
     38 H         -3.34203   -1.27388   9.009756 H        1 UNL1     0.0385
     39 H         -4.906448   -0.886466   9.752081 H        1 UNL1     0.0385
     40 H         -3.676252   1.139194   8.884518 H        1 UNL1     0.0789
     41 H         -4.907191   2.741107   6.720503 H        1 UNL1     0.0623
     42 H         -7.049047   3.948593   6.591619 H        1 UNL1     0.0654
     43 H         -8.832477   1.093706   9.259649 H        1 UNL1     0.0654
     44 H         -6.742213   -0.140293   9.377963 H        1 UNL1     0.0623
     45 H         -9.063114   4.201361   8.248549 H        1 UNL1     0.2921
     46 H         -5.402644   -4.08432   6.379438 H        1 UNL1     0.2922
     47 H         0.518064   0.298933   2.259518 H        1 UNL1     0.2126
     48 H         1.199101   -1.830699   -0.408231 H        1 UNL1     0.2101
     49 H         -2.027787   0.970409   -0.8658 H        1 UNL1     0.2100
     50 H         -2.726093   -3.294729   -1.235565 H        1 UNL1     0.2102
@<TRIPOS>BOND
     1     1     2    1
     2     1     6    1
     3     2     3    1
     4     3     4    1
     5     3    29    1
     6     3    33    1
     7     4     5    1
     8     5     6    1
     9     5     7    1
    10     5    35    1
    11     7     8    1
    12     8     9   ar
    13     8    13   ar
    14     9    10   ar
    15     9    36    1
    16    10    11   ar
    17    10    26    1
    18    11    12   ar
    19    11    14    1
    20    12    13   ar
    21    12    17    1
    22    13    37    1
    23    14    15    1
    24    14    25    2
    25    15    16    1
    26    15    38    1
    27    15    39    1
    28    16    17    1
    29    16    18    1
    30    16    40    1
    31    18    19   ar
    32    18    23   ar
    33    19    20   ar
    34    19    41    1
    35    20    21   ar
    36    20    42    1
    37    21    22   ar
    38    21    24    1
    39    22    23   ar
    40    22    43    1
    41    23    44    1
    42    24    45    1
    43    26    46    1
    44    27    47    1
    45    28    48    1
    46    29    49    1
    47    30    50    1
    48     1    31    1
    49     1    27    1
    50     2    32    1
    51     2    28    1
    52     4    34    1
    53     4    30    1
