@<TRIPOS>MOLECULE
*****
 50 53 0 0 0
SMALL
GASTEIGER

@<TRIPOS>ATOM
     1 C         -0.395773   -1.376717   1.648884 C.3        1 UNL1     0.1889
     2 C         -0.493476   -0.967549   0.154569 C.3        1 UNL1     0.1342
     3 C         -1.925234   -0.893734   -0.397778 C.3        1 UNL1     0.1174
     4 C         -2.851685   -1.948786   0.21187 C.3        1 UNL1     0.1456
     5 C         -2.72371   -2.032235   1.74387 C.3        1 UNL1     0.2326
     6 O         -1.371093   -2.302701   2.104624 O.3        1 UNL1     -0.3076
     7 O         -3.2747   -0.892224   2.428053 O.3        1 UNL1     -0.4605
     8 C         -3.819715   -1.138875   3.67531 C.ar        1 UNL1     0.1310
     9 C         -4.905274   -1.983023   3.932751 C.ar        1 UNL1     0.0226
     10 C         -5.374395   -2.181531   5.236753 C.ar        1 UNL1     0.1343
     11 C         -4.753621   -1.558628   6.318637 C.ar        1 UNL1     0.1007
     12 C         -3.694684   -0.681359   6.069969 C.ar        1 UNL1     0.1389
     13 C         -3.224857   -0.479873   4.758444 C.ar        1 UNL1     0.0229
     14 C         -5.15454   -1.798125   7.724361 C.2        1 UNL1     0.1740
     15 C         -4.240618   -1.224276   8.76695 C.3        1 UNL1     0.0520
     16 C         -3.787811   0.153911   8.304863 C.3        1 UNL1     0.1322
     17 O         -3.081175   0.06675   7.047827 O.3        1 UNL1     -0.4828
     18 C         -4.895529   1.209651   8.338009 C.ar        1 UNL1     -0.0067
     19 C         -4.56856   2.563631   8.118824 C.ar        1 UNL1     -0.0516
     20 C         -5.549552   3.559963   8.189113 C.ar        1 UNL1     -0.0198
     21 C         -6.856806   3.216836   8.484374 C.ar        1 UNL1     0.1169
     22 C         -7.215942   1.888455   8.672163 C.ar        1 UNL1     -0.0198
     23 C         -6.238591   0.889948   8.583712 C.ar        1 UNL1     -0.0516
     24 O         -7.777642   4.218319   8.581804 O.3        1 UNL1     -0.5068
     25 O         -6.120935   -2.485391   8.044094 O.2        1 UNL1     -0.2917
     26 O         -6.43778   -3.016533   5.41997 O.3        1 UNL1     -0.5058
     27 O         -0.269942   -0.272238   2.530405 O.3        1 UNL1     -0.3648
     28 O         0.219573   -1.939852   -0.632129 O.3        1 UNL1     -0.3841
     29 O         -2.44531   0.432328   -0.282834 O.3        1 UNL1     -0.3863
     30 O         -2.53437   -3.240203   -0.351372 O.3        1 UNL1     -0.3829
     31 H         0.547692   -1.921636   1.762974 H        1 UNL1     0.0937
     32 H         0.0   0.0   0.0 H        1 UNL1     0.0671
     33 H         -1.879241   -1.096582   -1.476878 H        1 UNL1     0.0649
     34 H         -3.892239   -1.730579   -0.052771 H        1 UNL1     0.0683
     35 H         -3.30874   -2.921461   2.010135 H        1 UNL1     0.1085
     36 H         -5.395159   -2.539465   3.14123 H        1 UNL1     0.0691
     37 H         -2.399667   0.209062   4.591341 H        1 UNL1     0.0691
     38 H         -3.389174   -1.905115   8.871966 H        1 UNL1     0.0385
     39 H         -4.768779   -1.186654   9.725808 H        1 UNL1     0.0385
     40 H         -3.031872   0.503288   9.021111 H        1 UNL1     0.0789
     41 H         -3.547967   2.859782   7.894471 H        1 UNL1     0.0623
     42 H         -5.282671   4.601804   8.029889 H        1 UNL1     0.0654
     43 H         -8.239519   1.607094   8.889043 H        1 UNL1     0.0654
     44 H         -6.556569   -0.13845   8.725601 H        1 UNL1     0.0623
     45 H         -7.307311   5.053308   8.737686 H        1 UNL1     0.2921
     46 H         -6.263447   -3.601725   6.174006 H        1 UNL1     0.2922
     47 H         -1.144276   0.049375   2.791105 H        1 UNL1     0.2126
     48 H         -0.328155   -2.117459   -1.420914 H        1 UNL1     0.2101
     49 H         -3.003037   0.500642   0.508411 H        1 UNL1     0.2100
     50 H         -2.208271   -3.09908   -1.264311 H        1 UNL1     0.2102
@<TRIPOS>BOND
     1     1     2    1
     2     1     6    1
     3     2     3    1
     4     3     4    1
     5     3    29    1
     6     3    33    1
     7     4     5    1
     8     5     6    1
     9     5     7    1
    10     5    35    1
    11     7     8    1
    12     8     9   ar
    13     8    13   ar
    14     9    10   ar
    15     9    36    1
    16    10    11   ar
    17    10    26    1
    18    11    12   ar
    19    11    14    1
    20    12    13   ar
    21    12    17    1
    22    13    37    1
    23    14    15    1
    24    14    25    2
    25    15    16    1
    26    15    38    1
    27    15    39    1
    28    16    17    1
    29    16    18    1
    30    16    40    1
    31    18    19   ar
    32    18    23   ar
    33    19    20   ar
    34    19    41    1
    35    20    21   ar
    36    20    42    1
    37    21    22   ar
    38    21    24    1
    39    22    23   ar
    40    22    43    1
    41    23    44    1
    42    24    45    1
    43    26    46    1
    44    27    47    1
    45    28    48    1
    46    29    49    1
    47    30    50    1
    48     1    31    1
    49     1    27    1
    50     2    32    1
    51     2    28    1
    52     4    34    1
    53     4    30    1
