@<TRIPOS>MOLECULE
*****
 50 53 0 0 0
SMALL
GASTEIGER

@<TRIPOS>ATOM
     1 C         0.012462   -1.145472   1.859716 C.3        1 UNL1     0.1889
     2 C         -0.261255   -1.01061   0.337602 C.3        1 UNL1     0.1342
     3 C         -1.705325   -1.32222   -0.084329 C.3        1 UNL1     0.1174
     4 C         -2.342105   -2.43314   0.754412 C.3        1 UNL1     0.1456
     5 C         -2.107414   -2.241281   2.263874 C.3        1 UNL1     0.2326
     6 O         -0.709205   -2.166556   2.532753 O.3        1 UNL1     -0.3076
     7 O         -2.850916   -1.143994   2.824664 O.3        1 UNL1     -0.4605
     8 C         -3.253504   -1.29369   4.139594 C.ar        1 UNL1     0.1310
     9 C         -3.842374   -2.44142   4.681119 C.ar        1 UNL1     0.0226
     10 C         -4.200615   -2.501916   6.033119 C.ar        1 UNL1     0.1343
     11 C         -3.956625   -1.423663   6.882636 C.ar        1 UNL1     0.1007
     12 C         -3.406723   -0.257146   6.344462 C.ar        1 UNL1     0.1389
     13 C         -3.049029   -0.195615   4.984426 C.ar        1 UNL1     0.0229
     14 C         -4.237908   -1.464091   8.33639 C.2        1 UNL1     0.1740
     15 C         -3.709676   -0.306944   9.132338 C.3        1 UNL1     0.0520
     16 C         -3.922144   0.968109   8.327942 C.3        1 UNL1     0.1322
     17 O         -3.223665   0.900148   7.065176 O.3        1 UNL1     -0.4828
     18 C         -5.389167   1.390957   8.219463 C.ar        1 UNL1     -0.0067
     19 C         -5.72839   2.523871   7.451579 C.ar        1 UNL1     -0.0516
     20 C         -7.054371   2.965543   7.369958 C.ar        1 UNL1     -0.0198
     21 C         -8.046975   2.288812   8.055961 C.ar        1 UNL1     0.1169
     22 C         -7.749138   1.150213   8.793337 C.ar        1 UNL1     -0.0198
     23 C         -6.426009   0.697532   8.860176 C.ar        1 UNL1     -0.0516
     24 O         -9.321001   2.770478   7.983445 O.3        1 UNL1     -0.5068
     25 O         -4.793469   -2.408358   8.891543 O.2        1 UNL1     -0.2917
     26 O         -4.772147   -3.650076   6.498593 O.3        1 UNL1     -0.5058
     27 O         -0.052084   0.08826   2.557231 O.3        1 UNL1     -0.3648
     28 O         0.597543   -1.929172   -0.363409 O.3        1 UNL1     -0.3841
     29 O         -2.493277   -0.130423   -0.114044 O.3        1 UNL1     -0.3863
     30 O         -1.78611   -3.705169   0.356291 O.3        1 UNL1     -0.3829
     31 H         1.056896   -1.459384   1.963134 H        1 UNL1     0.0937
     32 H         0.0   0.0   0.0 H        1 UNL1     0.0671
     33 H         -1.681153   -1.681967   -1.122461 H        1 UNL1     0.0649
     34 H         -3.419163   -2.478766   0.558796 H        1 UNL1     0.0683
     35 H         -2.468187   -3.177141   2.708719 H        1 UNL1     0.1085
     36 H         -4.006895   -3.332915   4.085896 H        1 UNL1     0.0691
     37 H         -2.623556   0.724519   4.589685 H        1 UNL1     0.0691
     38 H         -2.644532   -0.487515   9.312307 H        1 UNL1     0.0385
     39 H         -4.219684   -0.275109   10.101181 H        1 UNL1     0.0385
     40 H         -3.424822   1.781576   8.873342 H        1 UNL1     0.0789
     41 H         -4.966221   3.077715   6.911202 H        1 UNL1     0.0623
     42 H         -7.301497   3.847474   6.784178 H        1 UNL1     0.0654
     43 H         -8.521003   0.603931   9.322213 H        1 UNL1     0.0654
     44 H         -6.231006   -0.201503   9.436852 H        1 UNL1     0.0623
     45 H         -9.335077   3.660207   8.371904 H        1 UNL1     0.2921
     46 H         -4.26217   -3.981987   7.254351 H        1 UNL1     0.2922
     47 H         0.543451   0.73376   2.151611 H        1 UNL1     0.2126
     48 H         1.514522   -1.637549   -0.196563 H        1 UNL1     0.2101
     49 H         -2.211267   0.433333   -0.851908 H        1 UNL1     0.2100
     50 H         -2.067262   -3.881915   -0.565353 H        1 UNL1     0.2102
@<TRIPOS>BOND
     1     1     2    1
     2     1     6    1
     3     2     3    1
     4     3     4    1
     5     3    29    1
     6     3    33    1
     7     4     5    1
     8     5     6    1
     9     5     7    1
    10     5    35    1
    11     7     8    1
    12     8     9   ar
    13     8    13   ar
    14     9    10   ar
    15     9    36    1
    16    10    11   ar
    17    10    26    1
    18    11    12   ar
    19    11    14    1
    20    12    13   ar
    21    12    17    1
    22    13    37    1
    23    14    15    1
    24    14    25    2
    25    15    16    1
    26    15    38    1
    27    15    39    1
    28    16    17    1
    29    16    18    1
    30    16    40    1
    31    18    19   ar
    32    18    23   ar
    33    19    20   ar
    34    19    41    1
    35    20    21   ar
    36    20    42    1
    37    21    22   ar
    38    21    24    1
    39    22    23   ar
    40    22    43    1
    41    23    44    1
    42    24    45    1
    43    26    46    1
    44    27    47    1
    45    28    48    1
    46    29    49    1
    47    30    50    1
    48     1    31    1
    49     1    27    1
    50     2    32    1
    51     2    28    1
    52     4    34    1
    53     4    30    1
