@<TRIPOS>MOLECULE
*****
 50 53 0 0 0
SMALL
GASTEIGER

@<TRIPOS>ATOM
     1 C         -0.169004   -1.23662   1.792488 C.3        1 UNL1     0.1889
     2 C         -0.370976   -0.995908   0.272223 C.3        1 UNL1     0.1342
     3 C         -1.821687   -1.140062   -0.21267 C.3        1 UNL1     0.1174
     4 C         -2.594711   -2.224521   0.54198 C.3        1 UNL1     0.1456
     5 C         -2.399239   -2.136039   2.066554 C.3        1 UNL1     0.2326
     6 O         -1.01148   -2.214724   2.384047 O.3        1 UNL1     -0.3076
     7 O         -3.052787   -1.001123   2.663346 O.3        1 UNL1     -0.4605
     8 C         -3.506623   -1.174767   3.958494 C.ar        1 UNL1     0.1310
     9 C         -4.216522   -2.285862   4.426268 C.ar        1 UNL1     0.0226
     10 C         -4.618955   -2.376819   5.764056 C.ar        1 UNL1     0.1343
     11 C         -4.300197   -1.36876   6.672929 C.ar        1 UNL1     0.1007
     12 C         -3.627412   -0.235435   6.208473 C.ar        1 UNL1     0.1389
     13 C         -3.225188   -0.14301   4.862701 C.ar        1 UNL1     0.0229
     14 C         -4.62719   -1.451981   8.115255 C.2        1 UNL1     0.1740
     15 C         -4.016571   -0.389982   8.981771 C.3        1 UNL1     0.0520
     16 C         -4.08433   0.936667   8.237883 C.3        1 UNL1     0.1322
     17 O         -3.358034   0.863205   6.991221 O.3        1 UNL1     -0.4828
     18 C         -5.501284   1.502054   8.114173 C.ar        1 UNL1     -0.0067
     19 C         -5.961734   1.948112   6.858294 C.ar        1 UNL1     -0.0516
     20 C         -7.234668   2.514104   6.719534 C.ar        1 UNL1     -0.0198
     21 C         -8.051997   2.646042   7.827863 C.ar        1 UNL1     0.1169
     22 C         -7.639719   2.185581   9.071584 C.ar        1 UNL1     -0.0198
     23 C         -6.37404   1.602711   9.207132 C.ar        1 UNL1     -0.0516
     24 O         -9.270136   3.236622   7.661268 O.3        1 UNL1     -0.5068
     25 O         -5.285244   -2.364602   8.607773 O.2        1 UNL1     -0.2917
     26 O         -5.309376   -3.48634   6.156315 O.3        1 UNL1     -0.5058
     27 O         -0.139141   -0.040709   2.555174 O.3        1 UNL1     -0.3648
     28 O         0.419916   -1.957356   -0.450836 O.3        1 UNL1     -0.3841
     29 O         -2.488077   0.12403   -0.20133 O.3        1 UNL1     -0.3863
     30 O         -2.150776   -3.522946   0.091755 O.3        1 UNL1     -0.3829
     31 H         0.83525   -1.657701   1.911834 H        1 UNL1     0.0937
     32 H         0.0   0.0   0.0 H        1 UNL1     0.0671
     33 H         -1.793755   -1.445706   -1.267906 H        1 UNL1     0.0649
     34 H         -3.662988   -2.152651   0.309558 H        1 UNL1     0.0683
     35 H         -2.865928   -3.053387   2.446757 H        1 UNL1     0.1085
     36 H         -4.446232   -3.128011   3.782733 H        1 UNL1     0.0691
     37 H         -2.703632   0.750302   4.525853 H        1 UNL1     0.0691
     38 H         -2.978921   -0.679626   9.179039 H        1 UNL1     0.0385
     39 H         -4.549954   -0.356276   9.93788 H        1 UNL1     0.0385
     40 H         -3.529281   1.671925   8.836077 H        1 UNL1     0.0789
     41 H         -5.33569   1.864035   5.97475 H        1 UNL1     0.0623
     42 H         -7.573655   2.865176   5.748016 H        1 UNL1     0.0654
     43 H         -8.277662   2.270258   9.943231 H        1 UNL1     0.0654
     44 H         -6.088659   1.244297   10.191481 H        1 UNL1     0.0623
     45 H         -9.130726   4.140598   7.335526 H        1 UNL1     0.2921
     46 H         -4.842407   -3.915067   6.890852 H        1 UNL1     0.2922
     47 H         0.545444   0.554126   2.218463 H        1 UNL1     0.2126
     48 H         1.350988   -1.795418   -0.204638 H        1 UNL1     0.2101
     49 H         -2.11889   0.697917   -0.891365 H        1 UNL1     0.2100
     50 H         -2.408042   -3.620234   -0.84849 H        1 UNL1     0.2102
@<TRIPOS>BOND
     1     1     2    1
     2     1     6    1
     3     2     3    1
     4     3     4    1
     5     3    29    1
     6     3    33    1
     7     4     5    1
     8     5     6    1
     9     5     7    1
    10     5    35    1
    11     7     8    1
    12     8     9   ar
    13     8    13   ar
    14     9    10   ar
    15     9    36    1
    16    10    11   ar
    17    10    26    1
    18    11    12   ar
    19    11    14    1
    20    12    13   ar
    21    12    17    1
    22    13    37    1
    23    14    15    1
    24    14    25    2
    25    15    16    1
    26    15    38    1
    27    15    39    1
    28    16    17    1
    29    16    18    1
    30    16    40    1
    31    18    19   ar
    32    18    23   ar
    33    19    20   ar
    34    19    41    1
    35    20    21   ar
    36    20    42    1
    37    21    22   ar
    38    21    24    1
    39    22    23   ar
    40    22    43    1
    41    23    44    1
    42    24    45    1
    43    26    46    1
    44    27    47    1
    45    28    48    1
    46    29    49    1
    47    30    50    1
    48     1    31    1
    49     1    27    1
    50     2    32    1
    51     2    28    1
    52     4    34    1
    53     4    30    1
