@<TRIPOS>MOLECULE
*****
 50 53 0 0 0
SMALL
GASTEIGER

@<TRIPOS>ATOM
     1 C         2.099002   0.204782   -0.568383 C.3        1 UNL1     0.1889
     2 C         0.985361   -0.246847   0.414357 C.3        1 UNL1     0.1342
     3 C         1.097727   0.346221   1.827194 C.3        1 UNL1     0.1174
     4 C         2.548321   0.528619   2.280655 C.3        1 UNL1     0.1456
     5 C         3.425704   1.188157   1.201038 C.3        1 UNL1     0.2326
     6 O         3.38185   0.418163   0.001849 O.3        1 UNL1     -0.3076
     7 O         3.126636   2.580184   0.990941 O.3        1 UNL1     -0.4605
     8 C         1.788968   2.928043   1.047193 C.ar        1 UNL1     0.1310
     9 C         1.125785   3.417437   2.177672 C.ar        1 UNL1     0.0226
     10 C         -0.231082   3.758759   2.129587 C.ar        1 UNL1     0.1343
     11 C         -0.952532   3.641301   0.94234 C.ar        1 UNL1     0.1007
     12 C         -0.311601   3.115098   -0.182427 C.ar        1 UNL1     0.1389
     13 C         1.052053   2.769487   -0.133119 C.ar        1 UNL1     0.0229
     14 C         -2.365713   4.066081   0.813369 C.2        1 UNL1     0.1740
     15 C         -2.915315   4.077838   -0.582822 C.3        1 UNL1     0.0520
     16 C         -2.396447   2.848069   -1.315217 C.3        1 UNL1     0.1322
     17 O         -0.952893   2.855787   -1.371448 O.3        1 UNL1     -0.4828
     18 C         -3.00499   1.533736   -0.820314 C.ar        1 UNL1     -0.0067
     19 C         -4.260614   1.55011   -0.178945 C.ar        1 UNL1     -0.0516
     20 C         -4.823823   0.372799   0.327709 C.ar        1 UNL1     -0.0198
     21 C         -4.139577   -0.823381   0.206104 C.ar        1 UNL1     0.1169
     22 C         -2.916662   -0.877031   -0.449975 C.ar        1 UNL1     -0.0198
     23 C         -2.361747   0.297083   -0.973025 C.ar        1 UNL1     -0.0516
     24 O         -4.701949   -1.94299   0.745189 O.3        1 UNL1     -0.5068
     25 O         -3.040999   4.464262   1.758845 O.2        1 UNL1     -0.2917
     26 O         -0.818942   4.229257   3.267408 O.3        1 UNL1     -0.5058
     27 O         1.711642   1.283311   -1.404751 O.3        1 UNL1     -0.3648
     28 O         1.045781   -1.679321   0.545024 O.3        1 UNL1     -0.3841
     29 O         0.32881   1.545812   1.93618 O.3        1 UNL1     -0.3863
     30 O         3.10784   -0.761673   2.608945 O.3        1 UNL1     -0.3829
     31 H         2.261927   -0.62835   -1.260789 H        1 UNL1     0.0937
     32 H         0.0   0.0   0.0 H        1 UNL1     0.0671
     33 H         0.632932   -0.362806   2.526455 H        1 UNL1     0.0649
     34 H         2.581565   1.133997   3.193241 H        1 UNL1     0.0683
     35 H         4.444593   1.101286   1.598779 H        1 UNL1     0.1085
     36 H         1.644462   3.584409   3.115337 H        1 UNL1     0.0691
     37 H         1.527459   2.360878   -1.022232 H        1 UNL1     0.0691
     38 H         -2.572605   4.999096   -1.065897 H        1 UNL1     0.0385
     39 H         -4.009463   4.101902   -0.537669 H        1 UNL1     0.0385
     40 H         -2.712513   2.93816   -2.363313 H        1 UNL1     0.0789
     41 H         -4.813461   2.477751   -0.062784 H        1 UNL1     0.0623
     42 H         -5.78725   0.400374   0.83076 H        1 UNL1     0.0654
     43 H         -2.379311   -1.81092   -0.564058 H        1 UNL1     0.0654
     44 H         -1.409707   0.216578   -1.488761 H        1 UNL1     0.0623
     45 H         -5.551423   -2.102855   0.302975 H        1 UNL1     0.2921
     46 H         -1.751297   4.431055   3.090198 H        1 UNL1     0.2922
     47 H         1.198021   1.929986   -0.900901 H        1 UNL1     0.2126
     48 H         1.817024   -1.876279   1.110819 H        1 UNL1     0.2101
     49 H         0.072749   1.855082   1.052676 H        1 UNL1     0.2100
     50 H         3.531242   -0.691479   3.489579 H        1 UNL1     0.2102
@<TRIPOS>BOND
     1     1     2    1
     2     1     6    1
     3     2     3    1
     4     3     4    1
     5     3    29    1
     6     3    33    1
     7     4     5    1
     8     5     6    1
     9     5     7    1
    10     5    35    1
    11     7     8    1
    12     8     9   ar
    13     8    13   ar
    14     9    10   ar
    15     9    36    1
    16    10    11   ar
    17    10    26    1
    18    11    12   ar
    19    11    14    1
    20    12    13   ar
    21    12    17    1
    22    13    37    1
    23    14    15    1
    24    14    25    2
    25    15    16    1
    26    15    38    1
    27    15    39    1
    28    16    17    1
    29    16    18    1
    30    16    40    1
    31    18    19   ar
    32    18    23   ar
    33    19    20   ar
    34    19    41    1
    35    20    21   ar
    36    20    42    1
    37    21    22   ar
    38    21    24    1
    39    22    23   ar
    40    22    43    1
    41    23    44    1
    42    24    45    1
    43    26    46    1
    44    27    47    1
    45    28    48    1
    46    29    49    1
    47    30    50    1
    48     1    31    1
    49     1    27    1
    50     2    32    1
    51     2    28    1
    52     4    34    1
    53     4    30    1
