@<TRIPOS>MOLECULE
*****
 50 53 0 0 0
SMALL
GASTEIGER

@<TRIPOS>ATOM
     1 C         0.077288   -1.599722   -1.485167 C.3        1 UNL1     0.1889
     2 C         0.2587   -1.06542   -0.038947 C.3        1 UNL1     0.1342
     3 C         1.66623   -1.260987   0.545071 C.3        1 UNL1     0.1174
     4 C         2.328549   -2.558693   0.075593 C.3        1 UNL1     0.1456
     5 C         2.192725   -2.77494   -1.44268 C.3        1 UNL1     0.2326
     6 O         0.816034   -2.767124   -1.813529 O.3        1 UNL1     -0.3076
     7 O         2.994482   -1.87086   -2.224439 O.3        1 UNL1     -0.4605
     8 C         4.33606   -1.808954   -1.89298 C.ar        1 UNL1     0.1310
     9 C         4.979382   -0.706144   -1.320926 C.ar        1 UNL1     0.0226
     10 C         6.34261   -0.747139   -1.004964 C.ar        1 UNL1     0.1343
     11 C         7.091   -1.901413   -1.23169 C.ar        1 UNL1     0.1007
     12 C         6.469155   -2.994901   -1.840275 C.ar        1 UNL1     0.1389
     13 C         5.099041   -2.952508   -2.160307 C.ar        1 UNL1     0.0229
     14 C         8.513924   -2.02845   -0.84015 C.2        1 UNL1     0.1740
     15 C         9.09788   -3.406061   -0.952996 C.3        1 UNL1     0.0520
     16 C         8.576456   -4.047115   -2.231716 C.3        1 UNL1     0.1322
     17 O         7.135064   -4.141253   -2.207303 O.3        1 UNL1     -0.4828
     18 C         9.150268   -3.429232   -3.50909 C.ar        1 UNL1     -0.0067
     19 C         9.927134   -2.255708   -3.422288 C.ar        1 UNL1     -0.0516
     20 C         10.42722   -1.638409   -4.575033 C.ar        1 UNL1     -0.0198
     21 C         10.151894   -2.179464   -5.818127 C.ar        1 UNL1     0.1169
     22 C         9.417942   -3.352823   -5.933809 C.ar        1 UNL1     -0.0198
     23 C         8.933289   -3.980545   -4.780062 C.ar        1 UNL1     -0.0516
     24 O         10.623835   -1.52962   -6.920567 O.3        1 UNL1     -0.5068
     25 O         9.172357   -1.102059   -0.374585 O.2        1 UNL1     -0.2917
     26 O         6.910142   0.362598   -0.450009 O.3        1 UNL1     -0.5058
     27 O         0.213201   -0.596957   -2.47954 O.3        1 UNL1     -0.3648
     28 O         -0.662762   -1.759246   0.822574 O.3        1 UNL1     -0.3841
     29 O         2.477723   -0.108631   0.309085 O.3        1 UNL1     -0.3863
     30 O         1.720037   -3.675557   0.759712 O.3        1 UNL1     -0.3829
     31 H         -0.965554   -1.924253   -1.570249 H        1 UNL1     0.0937
     32 H         0.0   0.0   0.0 H        1 UNL1     0.0671
     33 H         1.569286   -1.330818   1.63752 H        1 UNL1     0.0649
     34 H         3.390019   -2.556278   0.347026 H        1 UNL1     0.0683
     35 H         2.559103   -3.797439   -1.598057 H        1 UNL1     0.1085
     36 H         4.440663   0.20065   -1.068681 H        1 UNL1     0.0691
     37 H         4.638833   -3.816693   -2.634528 H        1 UNL1     0.0691
     38 H         8.782833   -3.972644   -0.070242 H        1 UNL1     0.0385
     39 H         10.190834   -3.334667   -0.941483 H        1 UNL1     0.0385
     40 H         8.919732   -5.090511   -2.234023 H        1 UNL1     0.0789
     41 H         10.149567   -1.806266   -2.45887 H        1 UNL1     0.0623
     42 H         11.015005   -0.727237   -4.495753 H        1 UNL1     0.0654
     43 H         9.20919   -3.793385   -6.901403 H        1 UNL1     0.0654
     44 H         8.37251   -4.901561   -4.906944 H        1 UNL1     0.0623
     45 H         10.059107   -1.758281   -7.676552 H        1 UNL1     0.2921
     46 H         7.766302   0.126973   -0.059005 H        1 UNL1     0.2922
     47 H         -0.63135   -0.454941   -2.929458 H        1 UNL1     0.2126
     48 H         -0.144569   -2.080562   1.585439 H        1 UNL1     0.2101
     49 H         3.414143   -0.334788   0.426411 H        1 UNL1     0.2100
     50 H         2.169516   -4.493201   0.461151 H        1 UNL1     0.2102
@<TRIPOS>BOND
     1     1     2    1
     2     1     6    1
     3     2     3    1
     4     3     4    1
     5     3    29    1
     6     3    33    1
     7     4     5    1
     8     5     6    1
     9     5     7    1
    10     5    35    1
    11     7     8    1
    12     8     9   ar
    13     8    13   ar
    14     9    10   ar
    15     9    36    1
    16    10    11   ar
    17    10    26    1
    18    11    12   ar
    19    11    14    1
    20    12    13   ar
    21    12    17    1
    22    13    37    1
    23    14    15    1
    24    14    25    2
    25    15    16    1
    26    15    38    1
    27    15    39    1
    28    16    17    1
    29    16    18    1
    30    16    40    1
    31    18    19   ar
    32    18    23   ar
    33    19    20   ar
    34    19    41    1
    35    20    21   ar
    36    20    42    1
    37    21    22   ar
    38    21    24    1
    39    22    23   ar
    40    22    43    1
    41    23    44    1
    42    24    45    1
    43    26    46    1
    44    27    47    1
    45    28    48    1
    46    29    49    1
    47    30    50    1
    48     1    31    1
    49     1    27    1
    50     2    32    1
    51     2    28    1
    52     4    34    1
    53     4    30    1
