@<TRIPOS>MOLECULE
*****
 50 53 0 0 0
SMALL
GASTEIGER

@<TRIPOS>ATOM
     1 C         0.20008   -1.35708   1.699737 C.3        1 UNL1     0.1889
     2 C         -0.630767   -0.399527   0.803787 C.3        1 UNL1     0.1342
     3 C         -1.288805   0.769627   1.552472 C.3        1 UNL1     0.1174
     4 C         -1.741614   0.390374   2.964651 C.3        1 UNL1     0.1456
     5 C         -0.662848   -0.385902   3.741841 C.3        1 UNL1     0.2326
     6 O         -0.28948   -1.556011   3.017748 O.3        1 UNL1     -0.3076
     7 O         0.462409   0.425175   4.1256 O.3        1 UNL1     -0.4605
     8 C         1.65284   -0.248425   4.332151 C.ar        1 UNL1     0.1310
     9 C         1.863453   -1.611761   4.099218 C.ar        1 UNL1     0.0226
     10 C         3.114071   -2.199578   4.323554 C.ar        1 UNL1     0.1343
     11 C         4.191864   -1.432649   4.764035 C.ar        1 UNL1     0.1007
     12 C         3.983169   -0.078598   5.039309 C.ar        1 UNL1     0.1389
     13 C         2.724899   0.511658   4.816182 C.ar        1 UNL1     0.0229
     14 C         5.555517   -1.984552   4.937258 C.2        1 UNL1     0.1740
     15 C         6.635474   -0.976405   5.199708 C.3        1 UNL1     0.0520
     16 C         6.089371   0.077479   6.153154 C.3        1 UNL1     0.1322
     17 O         4.944209   0.744827   5.57842 O.3        1 UNL1     -0.4828
     18 C         5.875593   -0.433899   7.579869 C.ar        1 UNL1     -0.0067
     19 C         6.994509   -0.758548   8.374126 C.ar        1 UNL1     -0.0516
     20 C         6.833314   -1.273451   9.665967 C.ar        1 UNL1     -0.0198
     21 C         5.561263   -1.474777   10.171122 C.ar        1 UNL1     0.1169
     22 C         4.440241   -1.133351   9.425752 C.ar        1 UNL1     -0.0198
     23 C         4.601359   -0.601155   8.140892 C.ar        1 UNL1     -0.0516
     24 O         5.443136   -2.013412   11.418648 O.3        1 UNL1     -0.5068
     25 O         5.825606   -3.174836   4.800281 O.2        1 UNL1     -0.2917
     26 O         3.253173   -3.534458   4.077931 O.3        1 UNL1     -0.5058
     27 O         1.589944   -1.072406   1.694685 O.3        1 UNL1     -0.3648
     28 O         -1.684915   -1.157157   0.181312 O.3        1 UNL1     -0.3841
     29 O         -0.445552   1.923172   1.532755 O.3        1 UNL1     -0.3863
     30 O         -2.92935   -0.4266   2.877903 O.3        1 UNL1     -0.3829
     31 H         0.12691   -2.351744   1.246562 H        1 UNL1     0.0937
     32 H         0.0   0.0   0.0 H        1 UNL1     0.0671
     33 H         -2.191449   1.058513   0.996146 H        1 UNL1     0.0649
     34 H         -2.012872   1.291851   3.52515 H        1 UNL1     0.0683
     35 H         -1.181141   -0.723454   4.648102 H        1 UNL1     0.1085
     36 H         1.081186   -2.250125   3.703401 H        1 UNL1     0.0691
     37 H         2.588036   1.567568   5.039372 H        1 UNL1     0.0691
     38 H         6.914804   -0.532413   4.238265 H        1 UNL1     0.0385
     39 H         7.513364   -1.488823   5.607771 H        1 UNL1     0.0385
     40 H         6.85165   0.863825   6.237476 H        1 UNL1     0.0789
     41 H         8.003384   -0.618328   7.997087 H        1 UNL1     0.0623
     42 H         7.703874   -1.531081   10.264102 H        1 UNL1     0.0654
     43 H         3.439705   -1.272816   9.817397 H        1 UNL1     0.0654
     44 H         3.703749   -0.335736   7.590715 H        1 UNL1     0.0623
     45 H         6.01189   -2.79873   11.468748 H        1 UNL1     0.2921
     46 H         2.376392   -3.939111   3.983462 H        1 UNL1     0.2922
     47 H         1.917951   -1.021356   0.786024 H        1 UNL1     0.2126
     48 H         -1.263032   -1.71697   -0.498656 H        1 UNL1     0.2101
     49 H         -0.77756   2.585413   2.159653 H        1 UNL1     0.2100
     50 H         -3.656274   0.133624   2.535203 H        1 UNL1     0.2102
@<TRIPOS>BOND
     1     1     2    1
     2     1     6    1
     3     2     3    1
     4     3     4    1
     5     3    29    1
     6     3    33    1
     7     4     5    1
     8     5     6    1
     9     5     7    1
    10     5    35    1
    11     7     8    1
    12     8     9   ar
    13     8    13   ar
    14     9    10   ar
    15     9    36    1
    16    10    11   ar
    17    10    26    1
    18    11    12   ar
    19    11    14    1
    20    12    13   ar
    21    12    17    1
    22    13    37    1
    23    14    15    1
    24    14    25    2
    25    15    16    1
    26    15    38    1
    27    15    39    1
    28    16    17    1
    29    16    18    1
    30    16    40    1
    31    18    19   ar
    32    18    23   ar
    33    19    20   ar
    34    19    41    1
    35    20    21   ar
    36    20    42    1
    37    21    22   ar
    38    21    24    1
    39    22    23   ar
    40    22    43    1
    41    23    44    1
    42    24    45    1
    43    26    46    1
    44    27    47    1
    45    28    48    1
    46    29    49    1
    47    30    50    1
    48     1    31    1
    49     1    27    1
    50     2    32    1
    51     2    28    1
    52     4    34    1
    53     4    30    1
