@<TRIPOS>MOLECULE
*****
 50 53 0 0 0
SMALL
GASTEIGER

@<TRIPOS>ATOM
     1 C         -0.390873   -1.380864   1.646583 C.3        1 UNL1     0.1889
     2 C         -0.492366   -0.968291   0.153458 C.3        1 UNL1     0.1342
     3 C         -1.92546   -0.894306   -0.395388 C.3        1 UNL1     0.1174
     4 C         -2.849675   -1.951497   0.213948 C.3        1 UNL1     0.1456
     5 C         -2.718075   -2.038417   1.745447 C.3        1 UNL1     0.2326
     6 O         -1.364414   -2.308669   2.102427 O.3        1 UNL1     -0.3076
     7 O         -3.268355   -0.900434   2.433565 O.3        1 UNL1     -0.4605
     8 C         -2.724941   -0.621475   3.674698 C.ar        1 UNL1     0.1310
     9 C         -2.901824   0.569172   4.387699 C.ar        1 UNL1     0.0226
     10 C         -2.322404   0.750222   5.649205 C.ar        1 UNL1     0.1343
     11 C         -1.57097   -0.265174   6.239255 C.ar        1 UNL1     0.1007
     12 C         -1.353221   -1.442955   5.519393 C.ar        1 UNL1     0.1389
     13 C         -1.933737   -1.623734   4.249845 C.ar        1 UNL1     0.0229
     14 C         -1.006185   -0.159577   7.604546 C.2        1 UNL1     0.1740
     15 C         -0.420963   -1.422681   8.164576 C.3        1 UNL1     0.0520
     16 C         0.339684   -2.134787   7.054495 C.3        1 UNL1     0.1322
     17 O         -0.541732   -2.46341   5.958055 O.3        1 UNL1     -0.4828
     18 C         1.6312   -1.425857   6.639612 C.ar        1 UNL1     -0.0067
     19 C         2.042313   -0.271423   7.337095 C.ar        1 UNL1     -0.0516
     20 C         3.192745   0.428053   6.953427 C.ar        1 UNL1     -0.0198
     21 C         3.934897   -0.011521   5.871849 C.ar        1 UNL1     0.1169
     22 C         3.57416   -1.164025   5.18596 C.ar        1 UNL1     -0.0198
     23 C         2.434074   -1.874143   5.58092 C.ar        1 UNL1     -0.0516
     24 O         5.027879   0.716801   5.503969 O.3        1 UNL1     -0.5068
     25 O         -1.071554   0.85996   8.286277 O.2        1 UNL1     -0.2917
     26 O         -2.532351   1.935387   6.29177 O.3        1 UNL1     -0.5058
     27 O         -0.263848   -0.278345   2.530383 O.3        1 UNL1     -0.3648
     28 O         0.219605   -1.938202   -0.63716 O.3        1 UNL1     -0.3841
     29 O         -2.446295   0.431079   -0.276144 O.3        1 UNL1     -0.3863
     30 O         -2.53267   -3.24135   -0.353041 O.3        1 UNL1     -0.3829
     31 H         0.553276   -1.925312   1.75721 H        1 UNL1     0.0937
     32 H         0.0   0.0   0.0 H        1 UNL1     0.0671
     33 H         -1.881819   -1.094602   -1.475063 H        1 UNL1     0.0649
     34 H         -3.89101   -1.733486   -0.047766 H        1 UNL1     0.0683
     35 H         -3.301795   -2.928717   2.010995 H        1 UNL1     0.1085
     36 H         -3.520904   1.374588   4.008006 H        1 UNL1     0.0691
     37 H         -1.748079   -2.549459   3.709422 H        1 UNL1     0.0691
     38 H         -1.249714   -2.036981   8.532452 H        1 UNL1     0.0385
     39 H         0.223676   -1.173617   9.014392 H        1 UNL1     0.0385
     40 H         0.65738   -3.108005   7.452536 H        1 UNL1     0.0789
     41 H         1.471851   0.099176   8.183783 H        1 UNL1     0.0623
     42 H         3.49276   1.323652   7.491856 H        1 UNL1     0.0654
     43 H         4.156588   -1.5256   4.346942 H        1 UNL1     0.0654
     44 H         2.187649   -2.776154   5.029109 H        1 UNL1     0.0623
     45 H         4.731541   1.603487   5.241884 H        1 UNL1     0.2921
     46 H         -2.613077   1.776434   7.245515 H        1 UNL1     0.2922
     47 H         0.053977   -0.576476   3.394076 H        1 UNL1     0.2126
     48 H         -0.329818   -2.114396   -1.425083 H        1 UNL1     0.2101
     49 H         -3.002234   0.497114   0.516551 H        1 UNL1     0.2100
     50 H         -2.005846   -3.739162   0.306013 H        1 UNL1     0.2102
@<TRIPOS>BOND
     1     1     2    1
     2     1     6    1
     3     2     3    1
     4     3     4    1
     5     3    29    1
     6     3    33    1
     7     4     5    1
     8     5     6    1
     9     5     7    1
    10     5    35    1
    11     7     8    1
    12     8     9   ar
    13     8    13   ar
    14     9    10   ar
    15     9    36    1
    16    10    11   ar
    17    10    26    1
    18    11    12   ar
    19    11    14    1
    20    12    13   ar
    21    12    17    1
    22    13    37    1
    23    14    15    1
    24    14    25    2
    25    15    16    1
    26    15    38    1
    27    15    39    1
    28    16    17    1
    29    16    18    1
    30    16    40    1
    31    18    19   ar
    32    18    23   ar
    33    19    20   ar
    34    19    41    1
    35    20    21   ar
    36    20    42    1
    37    21    22   ar
    38    21    24    1
    39    22    23   ar
    40    22    43    1
    41    23    44    1
    42    24    45    1
    43    26    46    1
    44    27    47    1
    45    28    48    1
    46    29    49    1
    47    30    50    1
    48     1    31    1
    49     1    27    1
    50     2    32    1
    51     2    28    1
    52     4    34    1
    53     4    30    1
