@<TRIPOS>MOLECULE
*****
 50 53 0 0 0
SMALL
GASTEIGER

@<TRIPOS>ATOM
     1 C         2.112834   0.193917   0.518779 C.3        1 UNL1     0.1889
     2 C         0.650826   -0.201136   0.85996 C.3        1 UNL1     0.1342
     3 C         0.071286   0.495351   2.100728 C.3        1 UNL1     0.1174
     4 C         1.118435   0.732061   3.191857 C.3        1 UNL1     0.1456
     5 C         2.426587   1.32383   2.636059 C.3        1 UNL1     0.2326
     6 O         2.957316   0.467568   1.627094 O.3        1 UNL1     -0.3076
     7 O         2.300412   2.692132   2.208098 O.3        1 UNL1     -0.4605
     8 C         3.408621   3.236995   1.584781 C.ar        1 UNL1     0.1310
     9 C         4.197127   4.27402   2.09482 C.ar        1 UNL1     0.0226
     10 C         5.313019   4.746664   1.393895 C.ar        1 UNL1     0.1343
     11 C         5.681721   4.177052   0.175929 C.ar        1 UNL1     0.1007
     12 C         4.878399   3.168661   -0.363148 C.ar        1 UNL1     0.1389
     13 C         3.754905   2.695394   0.340564 C.ar        1 UNL1     0.0229
     14 C         6.898537   4.580455   -0.566216 C.2        1 UNL1     0.1740
     15 C         7.261954   3.714851   -1.736774 C.3        1 UNL1     0.0520
     16 C         5.98353   3.338377   -2.472883 C.3        1 UNL1     0.1322
     17 O         5.086319   2.612395   -1.603956 O.3        1 UNL1     -0.4828
     18 C         5.335931   4.5067   -3.220116 C.ar        1 UNL1     -0.0067
     19 C         6.15579   5.477331   -3.831607 C.ar        1 UNL1     -0.0516
     20 C         5.596317   6.58355   -4.482171 C.ar        1 UNL1     -0.0198
     21 C         4.221685   6.734054   -4.521721 C.ar        1 UNL1     0.1169
     22 C         3.3873   5.777701   -3.957781 C.ar        1 UNL1     -0.0198
     23 C         3.946075   4.661859   -3.323176 C.ar        1 UNL1     -0.0516
     24 O         3.714064   7.843634   -5.131273 O.3        1 UNL1     -0.5068
     25 O         7.624843   5.508543   -0.220361 O.2        1 UNL1     -0.2917
     26 O         6.039585   5.761179   1.945663 O.3        1 UNL1     -0.5058
     27 O         2.208842   1.202447   -0.474416 O.3        1 UNL1     -0.3648
     28 O         0.606849   -1.619145   1.104958 O.3        1 UNL1     -0.3841
     29 O         -0.625029   1.6881   1.733812 O.3        1 UNL1     -0.3863
     30 O         1.416213   -0.522256   3.842785 O.3        1 UNL1     -0.3829
     31 H         2.574527   -0.685132   0.055971 H        1 UNL1     0.0937
     32 H         -0.0   0.0   0.0 H        1 UNL1     0.0671
     33 H         -0.692214   -0.167452   2.531404 H        1 UNL1     0.0649
     34 H         0.71488   1.403033   3.958239 H        1 UNL1     0.0683
     35 H         3.11843   1.281507   3.486613 H        1 UNL1     0.1085
     36 H         3.995793   4.720475   3.062426 H        1 UNL1     0.0691
     37 H         3.145176   1.910235   -0.101305 H        1 UNL1     0.0691
     38 H         7.769355   2.82613   -1.346587 H        1 UNL1     0.0385
     39 H         7.965308   4.256088   -2.378751 H        1 UNL1     0.0385
     40 H         6.2593   2.613221   -3.250457 H        1 UNL1     0.0789
     41 H         7.237833   5.386764   -3.806493 H        1 UNL1     0.0623
     42 H         6.239411   7.33136   -4.939577 H        1 UNL1     0.0654
     43 H         2.309159   5.877975   -3.996086 H        1 UNL1     0.0654
     44 H         3.26417   3.929042   -2.902664 H        1 UNL1     0.0623
     45 H         2.841583   7.621712   -5.494928 H        1 UNL1     0.2921
     46 H         6.40202   5.472976   2.798301 H        1 UNL1     0.2922
     47 H         1.349709   1.627941   -0.603665 H        1 UNL1     0.2126
     48 H         1.366352   -1.826851   1.682665 H        1 UNL1     0.2101
     49 H         -0.006464   2.323136   1.338969 H        1 UNL1     0.2100
     50 H         2.390449   -0.613337   3.890537 H        1 UNL1     0.2102
@<TRIPOS>BOND
     1     1     2    1
     2     1     6    1
     3     2     3    1
     4     3     4    1
     5     3    29    1
     6     3    33    1
     7     4     5    1
     8     5     6    1
     9     5     7    1
    10     5    35    1
    11     7     8    1
    12     8     9   ar
    13     8    13   ar
    14     9    10   ar
    15     9    36    1
    16    10    11   ar
    17    10    26    1
    18    11    12   ar
    19    11    14    1
    20    12    13   ar
    21    12    17    1
    22    13    37    1
    23    14    15    1
    24    14    25    2
    25    15    16    1
    26    15    38    1
    27    15    39    1
    28    16    17    1
    29    16    18    1
    30    16    40    1
    31    18    19   ar
    32    18    23   ar
    33    19    20   ar
    34    19    41    1
    35    20    21   ar
    36    20    42    1
    37    21    22   ar
    38    21    24    1
    39    22    23   ar
    40    22    43    1
    41    23    44    1
    42    24    45    1
    43    26    46    1
    44    27    47    1
    45    28    48    1
    46    29    49    1
    47    30    50    1
    48     1    31    1
    49     1    27    1
    50     2    32    1
    51     2    28    1
    52     4    34    1
    53     4    30    1
