@<TRIPOS>MOLECULE
*****
 50 53 0 0 0
SMALL
GASTEIGER

@<TRIPOS>ATOM
     1 C         -0.359504   -1.393037   1.643475 C.3        1 UNL1     0.1889
     2 C         -0.482031   -0.973408   0.153898 C.3        1 UNL1     0.1342
     3 C         -1.922027   -0.909153   -0.377842 C.3        1 UNL1     0.1174
     4 C         -2.829761   -1.977705   0.236433 C.3        1 UNL1     0.1456
     5 C         -2.679537   -2.071637   1.765803 C.3        1 UNL1     0.2326
     6 O         -1.319484   -2.331825   2.105547 O.3        1 UNL1     -0.3076
     7 O         -3.231707   -0.94225   2.466455 O.3        1 UNL1     -0.4605
     8 C         -3.756814   -1.203669   3.719232 C.ar        1 UNL1     0.1310
     9 C         -4.593597   -2.278301   4.039018 C.ar        1 UNL1     0.0226
     10 C         -5.061239   -2.467777   5.344894 C.ar        1 UNL1     0.1343
     11 C         -4.683776   -1.599841   6.368636 C.ar        1 UNL1     0.1007
     12 C         -3.881819   -0.499726   6.053366 C.ar        1 UNL1     0.1389
     13 C         -3.413889   -0.307933   4.739712 C.ar        1 UNL1     0.0229
     14 C         -5.08023   -1.800528   7.781684 C.2        1 UNL1     0.1740
     15 C         -4.405413   -0.90504   8.778816 C.3        1 UNL1     0.0520
     16 C         -4.308132   0.492571   8.18285 C.3        1 UNL1     0.1322
     17 O         -3.538905   0.476231   6.96011 O.3        1 UNL1     -0.4828
     18 C         -5.654975   1.211738   8.075435 C.ar        1 UNL1     -0.0067
     19 C         -5.758704   2.372936   7.282295 C.ar        1 UNL1     -0.0516
     20 C         -6.963361   3.081467   7.200151 C.ar        1 UNL1     -0.0198
     21 C         -8.066961   2.644206   7.910572 C.ar        1 UNL1     0.1169
     22 C         -8.005279   1.485457   8.673681 C.ar        1 UNL1     -0.0198
     23 C         -6.805913   0.766431   8.741346 C.ar        1 UNL1     -0.0516
     24 O         -9.212311   3.381113   7.836124 O.3        1 UNL1     -0.5068
     25 O         -5.846797   -2.68686   8.149483 O.2        1 UNL1     -0.2917
     26 O         -5.875198   -3.534899   5.590469 O.3        1 UNL1     -0.5058
     27 O         -0.231846   -0.294174   2.531727 O.3        1 UNL1     -0.3648
     28 O         0.229142   -1.932756   -0.65021 O.3        1 UNL1     -0.3841
     29 O         -2.453038   0.410924   -0.245339 O.3        1 UNL1     -0.3863
     30 O         -2.508095   -3.261662   -0.341215 O.3        1 UNL1     -0.3829
     31 H         0.590611   -1.929707   1.740154 H        1 UNL1     0.0937
     32 H         0.0   0.0   0.0 H        1 UNL1     0.0671
     33 H         -1.889236   -1.103287   -1.459025 H        1 UNL1     0.0649
     34 H         -3.875951   -1.767505   -0.011968 H        1 UNL1     0.0683
     35 H         -3.252288   -2.968463   2.033269 H        1 UNL1     0.1085
     36 H         -4.877632   -3.019405   3.299958 H        1 UNL1     0.0691
     37 H         -2.791745   0.557021   4.519977 H        1 UNL1     0.0691
     38 H         -3.411388   -1.319932   8.977073 H        1 UNL1     0.0385
     39 H         -4.974115   -0.917346   9.714875 H        1 UNL1     0.0385
     40 H         -3.709346   1.099011   8.87582 H        1 UNL1     0.0789
     41 H         -4.9043   2.741821   6.722322 H        1 UNL1     0.0623
     42 H         -7.027389   3.982125   6.594572 H        1 UNL1     0.0654
     43 H         -8.867724   1.125741   9.222046 H        1 UNL1     0.0654
     44 H         -6.79655   -0.140197   9.338659 H        1 UNL1     0.0623
     45 H         -9.046869   4.247023   8.242996 H        1 UNL1     0.2921
     46 H         -5.498212   -4.071534   6.305533 H        1 UNL1     0.2922
     47 H         0.509602   0.267241   2.265405 H        1 UNL1     0.2126
     48 H         1.175523   -1.835936   -0.429481 H        1 UNL1     0.2101
     49 H         -2.00835   1.009404   -0.866521 H        1 UNL1     0.2100
     50 H         -2.767246   -3.240784   -1.285735 H        1 UNL1     0.2102
@<TRIPOS>BOND
     1     1     2    1
     2     1     6    1
     3     2     3    1
     4     3     4    1
     5     3    29    1
     6     3    33    1
     7     4     5    1
     8     5     6    1
     9     5     7    1
    10     5    35    1
    11     7     8    1
    12     8     9   ar
    13     8    13   ar
    14     9    10   ar
    15     9    36    1
    16    10    11   ar
    17    10    26    1
    18    11    12   ar
    19    11    14    1
    20    12    13   ar
    21    12    17    1
    22    13    37    1
    23    14    15    1
    24    14    25    2
    25    15    16    1
    26    15    38    1
    27    15    39    1
    28    16    17    1
    29    16    18    1
    30    16    40    1
    31    18    19   ar
    32    18    23   ar
    33    19    20   ar
    34    19    41    1
    35    20    21   ar
    36    20    42    1
    37    21    22   ar
    38    21    24    1
    39    22    23   ar
    40    22    43    1
    41    23    44    1
    42    24    45    1
    43    26    46    1
    44    27    47    1
    45    28    48    1
    46    29    49    1
    47    30    50    1
    48     1    31    1
    49     1    27    1
    50     2    32    1
    51     2    28    1
    52     4    34    1
    53     4    30    1
