@<TRIPOS>MOLECULE
*****
 50 53 0 0 0
SMALL
GASTEIGER

@<TRIPOS>ATOM
     1 C         -0.559218   -1.44596   1.538596 C.3        1 UNL1     0.1889
     2 C         -0.575703   -0.930924   0.074217 C.3        1 UNL1     0.1342
     3 C         -1.97839   -0.700483   -0.508733 C.3        1 UNL1     0.1174
     4 C         -3.006977   -1.712557   0.001985 C.3        1 UNL1     0.1456
     5 C         -2.934855   -1.908817   1.527319 C.3        1 UNL1     0.2326
     6 O         -1.621039   -2.315311   1.903508 O.3        1 UNL1     -0.3076
     7 O         -3.412027   -0.774982   2.274344 O.3        1 UNL1     -0.4605
     8 C         -4.014642   -1.057998   3.486898 C.ar        1 UNL1     0.1310
     9 C         -4.967669   -2.058931   3.704094 C.ar        1 UNL1     0.0226
     10 C         -5.508288   -2.27968   4.976455 C.ar        1 UNL1     0.1343
     11 C         -5.090965   -1.519767   6.068341 C.ar        1 UNL1     0.1007
     12 C         -4.170209   -0.490244   5.856032 C.ar        1 UNL1     0.1389
     13 C         -3.628733   -0.266745   4.576077 C.ar        1 UNL1     0.0229
     14 C         -5.566604   -1.765547   7.449468 C.2        1 UNL1     0.1740
     15 C         -4.849788   -1.007097   8.52765 C.3        1 UNL1     0.0520
     16 C         -4.587591   0.407278   8.028898 C.3        1 UNL1     0.1322
     17 O         -3.771351   0.387669   6.837076 O.3        1 UNL1     -0.4828
     18 C         -5.849934   1.265866   7.919173 C.ar        1 UNL1     -0.0067
     19 C         -5.802575   2.478273   7.200813 C.ar        1 UNL1     -0.0516
     20 C         -6.925741   3.310179   7.120857 C.ar        1 UNL1     -0.0198
     21 C         -8.097358   2.945284   7.759601 C.ar        1 UNL1     0.1169
     22 C         -8.184962   1.741469   8.446619 C.ar        1 UNL1     -0.0198
     23 C         -7.067474   0.900577   8.51125 C.ar        1 UNL1     -0.0516
     24 O         -9.159071   3.798814   7.691383 O.3        1 UNL1     -0.5068
     25 O         -6.43312   -2.589684   7.729526 O.2        1 UNL1     -0.2917
     26 O         -6.434647   -3.270918   5.120992 O.3        1 UNL1     -0.5058
     27 O         -0.371343   -0.417425   2.497557 O.3        1 UNL1     -0.3648
     28 O         0.079883   -1.904748   -0.759197 O.3        1 UNL1     -0.3841
     29 O         -2.391502   0.653844   -0.315678 O.3        1 UNL1     -0.3863
     30 O         -2.778807   -2.985423   -0.641008 O.3        1 UNL1     -0.3829
     31 H         0.332364   -2.074495   1.639125 H        1 UNL1     0.0937
     32 H         0.0   0.0   0.0 H        1 UNL1     0.0671
     33 H         -1.915008   -0.833775   -1.597739 H        1 UNL1     0.0649
     34 H         -4.017259   -1.390627   -0.273862 H        1 UNL1     0.0683
     35 H         -3.598881   -2.761669   1.715975 H        1 UNL1     0.1085
     36 H         -5.291846   -2.720048   2.907882 H        1 UNL1     0.0691
     37 H         -2.914359   0.54183   4.436904 H        1 UNL1     0.0691
     38 H         -3.911735   -1.533057   8.734893 H        1 UNL1     0.0385
     39 H         -5.457078   -1.018788   9.439155 H        1 UNL1     0.0385
     40 H         -3.961976   0.905299   8.781959 H        1 UNL1     0.0789
     41 H         -4.892048   2.791528   6.698357 H        1 UNL1     0.0623
     42 H         -6.873097   4.248281   6.573861 H        1 UNL1     0.0654
     43 H         -9.102061   1.438855   8.937805 H        1 UNL1     0.0654
     44 H         -7.174694   -0.037343   9.047586 H        1 UNL1     0.0623
     45 H         -8.910029   4.633053   8.121196 H        1 UNL1     0.2921
     46 H         -6.144612   -3.886416   5.812696 H        1 UNL1     0.2922
     47 H         0.429684   0.08611   2.295894 H        1 UNL1     0.2126
     48 H         1.020281   -1.910531   -0.49585 H        1 UNL1     0.2101
     49 H         -1.866343   1.24278   -0.880618 H        1 UNL1     0.2100
     50 H         -2.992259   -2.885439   -1.591879 H        1 UNL1     0.2102
@<TRIPOS>BOND
     1     1     2    1
     2     1     6    1
     3     2     3    1
     4     3     4    1
     5     3    29    1
     6     3    33    1
     7     4     5    1
     8     5     6    1
     9     5     7    1
    10     5    35    1
    11     7     8    1
    12     8     9   ar
    13     8    13   ar
    14     9    10   ar
    15     9    36    1
    16    10    11   ar
    17    10    26    1
    18    11    12   ar
    19    11    14    1
    20    12    13   ar
    21    12    17    1
    22    13    37    1
    23    14    15    1
    24    14    25    2
    25    15    16    1
    26    15    38    1
    27    15    39    1
    28    16    17    1
    29    16    18    1
    30    16    40    1
    31    18    19   ar
    32    18    23   ar
    33    19    20   ar
    34    19    41    1
    35    20    21   ar
    36    20    42    1
    37    21    22   ar
    38    21    24    1
    39    22    23   ar
    40    22    43    1
    41    23    44    1
    42    24    45    1
    43    26    46    1
    44    27    47    1
    45    28    48    1
    46    29    49    1
    47    30    50    1
    48     1    31    1
    49     1    27    1
    50     2    32    1
    51     2    28    1
    52     4    34    1
    53     4    30    1
