@<TRIPOS>MOLECULE
*****
 50 53 0 0 0
SMALL
GASTEIGER

@<TRIPOS>ATOM
     1 C         -0.35033   -1.338476   1.690134 C.3        1 UNL1     0.1889
     2 C         -0.471587   -0.972864   0.186284 C.3        1 UNL1     0.1342
     3 C         -1.91006   -0.943844   -0.352621 C.3        1 UNL1     0.1174
     4 C         -2.8081   -2.000498   0.295549 C.3        1 UNL1     0.1456
     5 C         -2.662999   -2.03892   1.827813 C.3        1 UNL1     0.2326
     6 O         -1.301468   -2.271399   2.181444 O.3        1 UNL1     -0.3076
     7 O         -3.230757   -0.892023   2.486296 O.3        1 UNL1     -0.4605
     8 C         -3.181722   0.297443   1.781815 C.ar        1 UNL1     0.1310
     9 C         -2.06343   0.790444   1.100879 C.ar        1 UNL1     0.0226
     10 C         -2.1185   2.001052   0.399952 C.ar        1 UNL1     0.1343
     11 C         -3.301299   2.736984   0.343103 C.ar        1 UNL1     0.1007
     12 C         -4.412894   2.275468   1.053133 C.ar        1 UNL1     0.1389
     13 C         -4.356499   1.059508   1.760023 C.ar        1 UNL1     0.0229
     14 C         -3.439319   3.979409   -0.451558 C.2        1 UNL1     0.1740
     15 C         -4.834586   4.516316   -0.580049 C.3        1 UNL1     0.0520
     16 C         -5.535489   4.362704   0.762744 C.3        1 UNL1     0.1322
     17 O         -5.59389   2.97346   1.154739 O.3        1 UNL1     -0.4828
     18 C         -5.005762   5.305687   1.845747 C.ar        1 UNL1     -0.0067
     19 C         -4.696854   4.790936   3.121608 C.ar        1 UNL1     -0.0516
     20 C         -4.255459   5.633755   4.148637 C.ar        1 UNL1     -0.0198
     21 C         -4.126181   6.991173   3.915118 C.ar        1 UNL1     0.1169
     22 C         -4.390685   7.522885   2.659667 C.ar        1 UNL1     -0.0198
     23 C         -4.814411   6.677557   1.627226 C.ar        1 UNL1     -0.0516
     24 O         -3.730038   7.786339   4.950098 O.3        1 UNL1     -0.5068
     25 O         -2.50358   4.510752   -1.043631 O.2        1 UNL1     -0.2917
     26 O         -0.992481   2.426795   -0.242238 O.3        1 UNL1     -0.5058
     27 O         -0.23872   -0.207698   2.539647 O.3        1 UNL1     -0.3648
     28 O         0.253653   -1.951649   -0.580992 O.3        1 UNL1     -0.3841
     29 O         -2.456526   0.373897   -0.268562 O.3        1 UNL1     -0.3863
     30 O         -2.469575   -3.30018   -0.235408 O.3        1 UNL1     -0.3829
     31 H         0.605407   -1.860489   1.809085 H        1 UNL1     0.0937
     32 H         0.0   0.0   0.0 H        1 UNL1     0.0671
     33 H         -1.870704   -1.175449   -1.426181 H        1 UNL1     0.0649
     34 H         -3.855593   -1.811163   0.036104 H        1 UNL1     0.0683
     35 H         -3.226626   -2.932305   2.124571 H        1 UNL1     0.1085
     36 H         -1.131136   0.237897   1.06038 H        1 UNL1     0.0691
     37 H         -5.235347   0.722692   2.305618 H        1 UNL1     0.0691
     38 H         -5.341909   3.937093   -1.358927 H        1 UNL1     0.0385
     39 H         -4.788566   5.561034   -0.905971 H        1 UNL1     0.0385
     40 H         -6.585136   4.650586   0.614808 H        1 UNL1     0.0789
     41 H         -4.798848   3.730447   3.332821 H        1 UNL1     0.0623
     42 H         -4.031817   5.226545   5.131579 H        1 UNL1     0.0654
     43 H         -4.278338   8.582172   2.461676 H        1 UNL1     0.0654
     44 H         -5.001977   7.125403   0.656094 H        1 UNL1     0.0623
     45 H         -4.399835   7.733756   5.651043 H        1 UNL1     0.2921
     46 H         -1.18868   2.564268   -1.18246 H        1 UNL1     0.2922
     47 H         0.497388   0.35248   2.256443 H        1 UNL1     0.2126
     48 H         1.192666   -1.866803   -0.326457 H        1 UNL1     0.2101
     49 H         -2.015904   0.955331   -0.908547 H        1 UNL1     0.2100
     50 H         -2.704286   -3.307799   -1.186495 H        1 UNL1     0.2102
@<TRIPOS>BOND
     1     1     2    1
     2     1     6    1
     3     2     3    1
     4     3     4    1
     5     3    29    1
     6     3    33    1
     7     4     5    1
     8     5     6    1
     9     5     7    1
    10     5    35    1
    11     7     8    1
    12     8     9   ar
    13     8    13   ar
    14     9    10   ar
    15     9    36    1
    16    10    11   ar
    17    10    26    1
    18    11    12   ar
    19    11    14    1
    20    12    13   ar
    21    12    17    1
    22    13    37    1
    23    14    15    1
    24    14    25    2
    25    15    16    1
    26    15    38    1
    27    15    39    1
    28    16    17    1
    29    16    18    1
    30    16    40    1
    31    18    19   ar
    32    18    23   ar
    33    19    20   ar
    34    19    41    1
    35    20    21   ar
    36    20    42    1
    37    21    22   ar
    38    21    24    1
    39    22    23   ar
    40    22    43    1
    41    23    44    1
    42    24    45    1
    43    26    46    1
    44    27    47    1
    45    28    48    1
    46    29    49    1
    47    30    50    1
    48     1    31    1
    49     1    27    1
    50     2    32    1
    51     2    28    1
    52     4    34    1
    53     4    30    1
