@<TRIPOS>MOLECULE
*****
 50 53 0 0 0
SMALL
GASTEIGER

@<TRIPOS>ATOM
     1 C         -1.152657   0.771591   -1.687256 C.3        1 UNL1     0.1889
     2 C         -0.769068   0.760653   -0.183035 C.3        1 UNL1     0.1342
     3 C         -1.945251   0.525189   0.776973 C.3        1 UNL1     0.1174
     4 C         -3.250356   1.153464   0.281908 C.3        1 UNL1     0.1456
     5 C         -3.522732   0.855023   -1.203726 C.3        1 UNL1     0.2326
     6 O         -2.4297   1.308615   -1.998964 O.3        1 UNL1     -0.3076
     7 O         -3.876084   -0.516881   -1.457385 O.3        1 UNL1     -0.4605
     8 C         -3.177653   -1.466547   -0.733606 C.ar        1 UNL1     0.1310
     9 C         -2.122231   -1.20074   0.145445 C.ar        1 UNL1     0.0226
     10 C         -1.487755   -2.232474   0.847491 C.ar        1 UNL1     0.1343
     11 C         -1.90945   -3.553769   0.705393 C.ar        1 UNL1     0.1007
     12 C         -2.93524   -3.836437   -0.200498 C.ar        1 UNL1     0.1389
     13 C         -3.571285   -2.799164   -0.908271 C.ar        1 UNL1     0.0229
     14 C         -1.330636   -4.67213   1.48539 C.2        1 UNL1     0.1740
     15 C         -2.050601   -5.983754   1.372064 C.3        1 UNL1     0.0520
     16 C         -2.475884   -6.176278   -0.077083 C.3        1 UNL1     0.1322
     17 O         -3.356482   -5.111509   -0.498845 O.3        1 UNL1     -0.4828
     18 C         -1.310017   -6.45029   -1.03018 C.ar        1 UNL1     -0.0067
     19 C         -0.527179   -7.609366   -0.851512 C.ar        1 UNL1     -0.0516
     20 C         0.575009   -7.865849   -1.675745 C.ar        1 UNL1     -0.0198
     21 C         0.908367   -6.969338   -2.675229 C.ar        1 UNL1     0.1169
     22 C         0.136855   -5.836066   -2.897275 C.ar        1 UNL1     -0.0198
     23 C         -0.976313   -5.588714   -2.085037 C.ar        1 UNL1     -0.0516
     24 O         2.01083   -7.233353   -3.433696 O.3        1 UNL1     -0.5068
     25 O         -0.374265   -4.542824   2.245073 O.2        1 UNL1     -0.2917
     26 O         -0.46411   -1.906395   1.688566 O.3        1 UNL1     -0.5058
     27 O         -0.934883   -0.471557   -2.335286 O.3        1 UNL1     -0.3648
     28 O         -0.193178   2.037394   0.150115 O.3        1 UNL1     -0.3841
     29 O         -2.080671   -0.864392   1.081702 O.3        1 UNL1     -0.3863
     30 O         -3.185857   2.58474   0.463508 O.3        1 UNL1     -0.3829
     31 H         -0.458036   1.459033   -2.182235 H        1 UNL1     0.0937
     32 H         0.0   0.0   0.0 H        1 UNL1     0.0671
     33 H         -1.700987   1.010877   1.732045 H        1 UNL1     0.0649
     34 H         -4.091436   0.79159   0.883599 H        1 UNL1     0.0683
     35 H         -4.381467   1.492628   -1.448499 H        1 UNL1     0.1085
     36 H         -1.784791   -0.188974   0.341875 H        1 UNL1     0.0691
     37 H         -4.366555   -3.045704   -1.608454 H        1 UNL1     0.0691
     38 H         -2.920115   -5.942772   2.036739 H        1 UNL1     0.0385
     39 H         -1.391437   -6.786284   1.720239 H        1 UNL1     0.0385
     40 H         -3.099879   -7.079486   -0.114047 H        1 UNL1     0.0789
     41 H         -0.762686   -8.323964   -0.068227 H        1 UNL1     0.0623
     42 H         1.177931   -8.757107   -1.520321 H        1 UNL1     0.0654
     43 H         0.380075   -5.135069   -3.686804 H        1 UNL1     0.0654
     44 H         -1.562801   -4.69911   -2.29356 H        1 UNL1     0.0623
     45 H         2.380981   -8.085179   -3.150683 H        1 UNL1     0.2921
     46 H         -0.825157   -1.630769   2.545938 H        1 UNL1     0.2922
     47 H         0.008646   -0.599057   -2.506624 H        1 UNL1     0.2126
     48 H         -0.830713   2.487065   0.737548 H        1 UNL1     0.2101
     49 H         -1.534147   -1.088158   1.851789 H        1 UNL1     0.2100
     50 H         -2.398766   2.783943   1.011704 H        1 UNL1     0.2102
@<TRIPOS>BOND
     1     1     2    1
     2     1     6    1
     3     2     3    1
     4     3     4    1
     5     3    29    1
     6     3    33    1
     7     4     5    1
     8     5     6    1
     9     5     7    1
    10     5    35    1
    11     7     8    1
    12     8     9   ar
    13     8    13   ar
    14     9    10   ar
    15     9    36    1
    16    10    11   ar
    17    10    26    1
    18    11    12   ar
    19    11    14    1
    20    12    13   ar
    21    12    17    1
    22    13    37    1
    23    14    15    1
    24    14    25    2
    25    15    16    1
    26    15    38    1
    27    15    39    1
    28    16    17    1
    29    16    18    1
    30    16    40    1
    31    18    19   ar
    32    18    23   ar
    33    19    20   ar
    34    19    41    1
    35    20    21   ar
    36    20    42    1
    37    21    22   ar
    38    21    24    1
    39    22    23   ar
    40    22    43    1
    41    23    44    1
    42    24    45    1
    43    26    46    1
    44    27    47    1
    45    28    48    1
    46    29    49    1
    47    30    50    1
    48     1    31    1
    49     1    27    1
    50     2    32    1
    51     2    28    1
    52     4    34    1
    53     4    30    1
