@<TRIPOS>MOLECULE
*****
 50 53 0 0 0
SMALL
GASTEIGER

@<TRIPOS>ATOM
     1 C         -0.333942   -1.331417   1.699005 C.3        1 UNL1     0.1889
     2 C         -0.463709   -0.975219   0.193606 C.3        1 UNL1     0.1342
     3 C         -1.904434   -0.959777   -0.339815 C.3        1 UNL1     0.1174
     4 C         -2.792175   -2.019288   0.317809 C.3        1 UNL1     0.1456
     5 C         -2.640858   -2.047974   1.849685 C.3        1 UNL1     0.2326
     6 O         -1.276296   -2.268479   2.199282 O.3        1 UNL1     -0.3076
     7 O         -3.214462   -0.901554   2.503918 O.3        1 UNL1     -0.4605
     8 C         -3.724902   -1.119047   3.77107 C.ar        1 UNL1     0.1310
     9 C         -4.542786   -2.191752   4.142109 C.ar        1 UNL1     0.0226
     10 C         -4.996391   -2.334357   5.458851 C.ar        1 UNL1     0.1343
     11 C         -4.623213   -1.419795   6.4428 C.ar        1 UNL1     0.1007
     12 C         -3.840492   -0.321953   6.075549 C.ar        1 UNL1     0.1389
     13 C         -3.386699   -0.177348   4.750939 C.ar        1 UNL1     0.0229
     14 C         -5.004559   -1.568171   7.866427 C.2        1 UNL1     0.1740
     15 C         -4.33471   -0.622842   8.819948 C.3        1 UNL1     0.0520
     16 C         -4.263397   0.750446   8.166532 C.3        1 UNL1     0.1322
     17 O         -3.504469   0.69523   6.938506 O.3        1 UNL1     -0.4828
     18 C         -5.621696   1.444906   8.042139 C.ar        1 UNL1     -0.0067
     19 C         -5.998447   2.013311   6.807964 C.ar        1 UNL1     -0.0516
     20 C         -7.212766   2.696763   6.672748 C.ar        1 UNL1     -0.0198
     21 C         -8.053829   2.824759   7.763645 C.ar        1 UNL1     0.1169
     22 C         -7.725854   2.247082   8.983301 C.ar        1 UNL1     -0.0198
     23 C         -6.520088   1.547707   9.113922 C.ar        1 UNL1     -0.0516
     24 O         -9.210519   3.529722   7.603976 O.3        1 UNL1     -0.5068
     25 O         -5.75464   -2.449765   8.277105 O.2        1 UNL1     -0.2917
     26 O         -5.7922   -3.402268   5.75523 O.3        1 UNL1     -0.5058
     27 O         -0.227344   -0.195062   2.541692 O.3        1 UNL1     -0.3648
     28 O         0.265716   -1.952998   -0.570981 O.3        1 UNL1     -0.3841
     29 O         -2.460227   0.354385   -0.261038 O.3        1 UNL1     -0.3863
     30 O         -2.446181   -3.319443   -0.207144 O.3        1 UNL1     -0.3829
     31 H         0.626054   -1.84574   1.817148 H        1 UNL1     0.0937
     32 H         0.0   0.0   0.0 H        1 UNL1     0.0671
     33 H         -1.867541   -1.19716   -1.4122 H        1 UNL1     0.0649
     34 H         -3.842027   -1.839095   0.061407 H        1 UNL1     0.0683
     35 H         -3.196758   -2.943766   2.153674 H        1 UNL1     0.1085
     36 H         -4.822016   -2.966576   3.436561 H        1 UNL1     0.0691
     37 H         -2.779438   0.68685   4.490387 H        1 UNL1     0.0691
     38 H         -3.332946   -1.014733   9.025898 H        1 UNL1     0.0385
     39 H         -4.89516   -0.605069   9.760883 H        1 UNL1     0.0385
     40 H         -3.667845   1.393431   8.828657 H        1 UNL1     0.0789
     41 H         -5.35157   1.934483   5.939064 H        1 UNL1     0.0623
     42 H         -7.486565   3.140934   5.718935 H        1 UNL1     0.0654
     43 H         -8.384113   2.32835   9.840039 H        1 UNL1     0.0654
     44 H         -6.300741   1.100072   10.078471 H        1 UNL1     0.0623
     45 H         -8.982966   4.439581   7.352791 H        1 UNL1     0.2921
     46 H         -5.389237   -3.916879   6.472312 H        1 UNL1     0.2922
     47 H         0.51638   0.35831   2.265079 H        1 UNL1     0.2126
     48 H         1.19867   -1.888927   -0.289514 H        1 UNL1     0.2101
     49 H         -2.020638   0.937473   -0.900228 H        1 UNL1     0.2100
     50 H         -2.679293   -3.332238   -1.158568 H        1 UNL1     0.2102
@<TRIPOS>BOND
     1     1     2    1
     2     1     6    1
     3     2     3    1
     4     3     4    1
     5     3    29    1
     6     3    33    1
     7     4     5    1
     8     5     6    1
     9     5     7    1
    10     5    35    1
    11     7     8    1
    12     8     9   ar
    13     8    13   ar
    14     9    10   ar
    15     9    36    1
    16    10    11   ar
    17    10    26    1
    18    11    12   ar
    19    11    14    1
    20    12    13   ar
    21    12    17    1
    22    13    37    1
    23    14    15    1
    24    14    25    2
    25    15    16    1
    26    15    38    1
    27    15    39    1
    28    16    17    1
    29    16    18    1
    30    16    40    1
    31    18    19   ar
    32    18    23   ar
    33    19    20   ar
    34    19    41    1
    35    20    21   ar
    36    20    42    1
    37    21    22   ar
    38    21    24    1
    39    22    23   ar
    40    22    43    1
    41    23    44    1
    42    24    45    1
    43    26    46    1
    44    27    47    1
    45    28    48    1
    46    29    49    1
    47    30    50    1
    48     1    31    1
    49     1    27    1
    50     2    32    1
    51     2    28    1
    52     4    34    1
    53     4    30    1
