@<TRIPOS>MOLECULE
*****
 50 53 0 0 0
SMALL
GASTEIGER

@<TRIPOS>ATOM
     1 C         -0.345644   -1.336358   1.692773 C.3        1 UNL1     0.1889
     2 C         -0.469126   -0.973647   0.188402 C.3        1 UNL1     0.1342
     3 C         -1.908151   -0.948949   -0.349243 C.3        1 UNL1     0.1174
     4 C         -2.803111   -2.006585   0.301579 C.3        1 UNL1     0.1456
     5 C         -2.656531   -2.042002   1.833774 C.3        1 UNL1     0.2326
     6 O         -1.294136   -2.270662   2.186568 O.3        1 UNL1     -0.3076
     7 O         -3.226392   -0.895303   2.490783 O.3        1 UNL1     -0.4605
     8 C         -3.741702   -1.115195   3.755547 C.ar        1 UNL1     0.1310
     9 C         -4.566013   -2.185255   4.119944 C.ar        1 UNL1     0.0226
     10 C         -5.024266   -2.330737   5.43476 C.ar        1 UNL1     0.1343
     11 C         -4.6495   -1.421892   6.423391 C.ar        1 UNL1     0.1007
     12 C         -3.860238   -0.326535   6.062777 C.ar        1 UNL1     0.1389
     13 C         -3.401764   -0.179024   4.740101 C.ar        1 UNL1     0.0229
     14 C         -5.035845   -1.573923   7.845284 C.2        1 UNL1     0.1740
     15 C         -4.364169   -0.635669   8.804492 C.3        1 UNL1     0.0520
     16 C         -4.284076   0.739787   8.156677 C.3        1 UNL1     0.1322
     17 O         -3.521754   0.685586   6.930709 O.3        1 UNL1     -0.4828
     18 C         -5.63853   1.441481   8.030961 C.ar        1 UNL1     -0.0067
     19 C         -6.002413   2.029564   6.802156 C.ar        1 UNL1     -0.0516
     20 C         -7.212843   2.719832   6.666687 C.ar        1 UNL1     -0.0198
     21 C         -8.062764   2.835096   7.752125 C.ar        1 UNL1     0.1169
     22 C         -7.747566   2.238153   8.965858 C.ar        1 UNL1     -0.0198
     23 C         -6.545712   1.532068   9.096423 C.ar        1 UNL1     -0.0516
     24 O         -9.215273   3.547001   7.593018 O.3        1 UNL1     -0.5068
     25 O         -5.791523   -2.453367   8.25027 O.2        1 UNL1     -0.2917
     26 O         -5.826255   -3.395821   5.724581 O.3        1 UNL1     -0.5058
     27 O         -0.235928   -0.203846   2.54022 O.3        1 UNL1     -0.3648
     28 O         0.257722   -1.952054   -0.577834 O.3        1 UNL1     -0.3841
     29 O         -2.457642   0.367647   -0.266973 O.3        1 UNL1     -0.3863
     30 O         -2.462008   -3.306388   -0.227431 O.3        1 UNL1     -0.3829
     31 H         0.611427   -1.855912   1.811759 H        1 UNL1     0.0937
     32 H         0.0   0.0   0.0 H        1 UNL1     0.0671
     33 H         -1.869223   -1.182325   -1.422434 H        1 UNL1     0.0649
     34 H         -3.851282   -1.820168   0.04276 H        1 UNL1     0.0683
     35 H         -3.217783   -2.936195   2.132595 H        1 UNL1     0.1085
     36 H         -4.846972   -2.955919   3.410536 H        1 UNL1     0.0691
     37 H         -2.789439   0.683151   4.484746 H        1 UNL1     0.0691
     38 H         -3.364986   -1.033344   9.011887 H        1 UNL1     0.0385
     39 H         -4.927342   -0.618778   9.743816 H        1 UNL1     0.0385
     40 H         -3.687325   1.377209   8.823086 H        1 UNL1     0.0789
     41 H         -5.348389   1.960968   5.93775 H        1 UNL1     0.0623
     42 H         -7.476678   3.179141   5.717246 H        1 UNL1     0.0654
     43 H         -8.412858   2.309416   9.818043 H        1 UNL1     0.0654
     44 H         -6.336432   1.069356   10.056081 H        1 UNL1     0.0623
     45 H         -8.981964   4.460236   7.360023 H        1 UNL1     0.2921
     46 H         -5.428694   -3.914451   6.441783 H        1 UNL1     0.2922
     47 H         0.50884   0.349039   2.26545 H        1 UNL1     0.2126
     48 H         1.193437   -1.880045   -0.30768 H        1 UNL1     0.2101
     49 H         -2.018971   0.949003   -0.908367 H        1 UNL1     0.2100
     50 H         -2.697562   -3.316211   -1.178289 H        1 UNL1     0.2102
@<TRIPOS>BOND
     1     1     2    1
     2     1     6    1
     3     2     3    1
     4     3     4    1
     5     3    29    1
     6     3    33    1
     7     4     5    1
     8     5     6    1
     9     5     7    1
    10     5    35    1
    11     7     8    1
    12     8     9   ar
    13     8    13   ar
    14     9    10   ar
    15     9    36    1
    16    10    11   ar
    17    10    26    1
    18    11    12   ar
    19    11    14    1
    20    12    13   ar
    21    12    17    1
    22    13    37    1
    23    14    15    1
    24    14    25    2
    25    15    16    1
    26    15    38    1
    27    15    39    1
    28    16    17    1
    29    16    18    1
    30    16    40    1
    31    18    19   ar
    32    18    23   ar
    33    19    20   ar
    34    19    41    1
    35    20    21   ar
    36    20    42    1
    37    21    22   ar
    38    21    24    1
    39    22    23   ar
    40    22    43    1
    41    23    44    1
    42    24    45    1
    43    26    46    1
    44    27    47    1
    45    28    48    1
    46    29    49    1
    47    30    50    1
    48     1    31    1
    49     1    27    1
    50     2    32    1
    51     2    28    1
    52     4    34    1
    53     4    30    1
