@<TRIPOS>MOLECULE
*****
 50 53 0 0 0
SMALL
GASTEIGER

@<TRIPOS>ATOM
     1 C         -2.168029   -0.222355   -0.144961 C.3        1 UNL1     0.1889
     2 C         -0.775887   0.054364   -0.773696 C.3        1 UNL1     0.1342
     3 C         -0.659253   1.399577   -1.50668 C.3        1 UNL1     0.1174
     4 C         -1.956881   1.807337   -2.208827 C.3        1 UNL1     0.1456
     5 C         -3.194172   1.635123   -1.308929 C.3        1 UNL1     0.2326
     6 O         -3.284862   0.284749   -0.860451 O.3        1 UNL1     -0.3076
     7 O         -3.261117   2.593095   -0.236954 O.3        1 UNL1     -0.4605
     8 C         -4.531261   2.970086   0.160713 C.ar        1 UNL1     0.1310
     9 C         -5.579644   3.317289   -0.698147 C.ar        1 UNL1     0.0226
     10 C         -6.838774   3.669501   -0.197707 C.ar        1 UNL1     0.1343
     11 C         -7.087129   3.659996   1.174179 C.ar        1 UNL1     0.1007
     12 C         -6.036562   3.354812   2.043636 C.ar        1 UNL1     0.1389
     13 C         -4.76987   3.003265   1.540309 C.ar        1 UNL1     0.0229
     14 C         -8.421114   3.942035   1.753051 C.2        1 UNL1     0.1740
     15 C         -8.562204   3.6699   3.221923 C.3        1 UNL1     0.0520
     16 C         -7.2908   4.130381   3.921528 C.3        1 UNL1     0.1322
     17 O         -6.140002   3.419788   3.413798 O.3        1 UNL1     -0.4828
     18 C         -7.128271   5.651681   3.965749 C.ar        1 UNL1     -0.0067
     19 C         -5.894852   6.227376   3.597692 C.ar        1 UNL1     -0.0516
     20 C         -5.697481   7.611386   3.672015 C.ar        1 UNL1     -0.0198
     21 C         -6.720957   8.427919   4.11878 C.ar        1 UNL1     0.1169
     22 C         -7.957766   7.893972   4.456482 C.ar        1 UNL1     -0.0198
     23 C         -8.161372   6.511881   4.364688 C.ar        1 UNL1     -0.0516
     24 O         -6.479638   9.766995   4.213871 O.3        1 UNL1     -0.5068
     25 O         -9.387098   4.298395   1.083448 O.2        1 UNL1     -0.2917
     26 O         -7.818297   3.998862   -1.088573 O.3        1 UNL1     -0.5058
     27 O         -2.239487   0.100336   1.234731 O.3        1 UNL1     -0.3648
     28 O         -0.494423   -0.981854   -1.732725 O.3        1 UNL1     -0.3841
     29 O         -0.162083   2.413039   -0.63041 O.3        1 UNL1     -0.3863
     30 O         -2.12857   0.999393   -3.393495 O.3        1 UNL1     -0.3829
     31 H         -2.315229   -1.307455   -0.176075 H        1 UNL1     0.0937
     32 H         0.0   0.0   0.0 H        1 UNL1     0.0671
     33 H         0.104595   1.289996   -2.289143 H        1 UNL1     0.0649
     34 H         -1.891893   2.850115   -2.53866 H        1 UNL1     0.0683
     35 H         -4.040054   1.803438   -1.987187 H        1 UNL1     0.1085
     36 H         -5.466375   3.289832   -1.776357 H        1 UNL1     0.0691
     37 H         -3.96835   2.770953   2.238226 H        1 UNL1     0.0691
     38 H         -8.713172   2.592255   3.346084 H        1 UNL1     0.0385
     39 H         -9.452097   4.185597   3.598653 H        1 UNL1     0.0385
     40 H         -7.366731   3.815618   4.971136 H        1 UNL1     0.0789
     41 H         -5.07282   5.607086   3.252505 H        1 UNL1     0.0623
     42 H         -4.737942   8.042089   3.396713 H        1 UNL1     0.0654
     43 H         -8.770944   8.525835   4.793234 H        1 UNL1     0.0654
     44 H         -9.143516   6.130146   4.626443 H        1 UNL1     0.0623
     45 H         -5.756078   9.904058   4.846636 H        1 UNL1     0.2921
     46 H         -8.588018   3.424625   -0.95003 H        1 UNL1     0.2922
     47 H         -1.550006   -0.369279   1.724564 H        1 UNL1     0.2126
     48 H         -0.458963   -1.821391   -1.235078 H        1 UNL1     0.2101
     49 H         0.770698   2.242361   -0.424054 H        1 UNL1     0.2100
     50 H         -1.411219   1.227382   -4.020505 H        1 UNL1     0.2102
@<TRIPOS>BOND
     1     1     2    1
     2     1     6    1
     3     2     3    1
     4     3     4    1
     5     3    29    1
     6     3    33    1
     7     4     5    1
     8     5     6    1
     9     5     7    1
    10     5    35    1
    11     7     8    1
    12     8     9   ar
    13     8    13   ar
    14     9    10   ar
    15     9    36    1
    16    10    11   ar
    17    10    26    1
    18    11    12   ar
    19    11    14    1
    20    12    13   ar
    21    12    17    1
    22    13    37    1
    23    14    15    1
    24    14    25    2
    25    15    16    1
    26    15    38    1
    27    15    39    1
    28    16    17    1
    29    16    18    1
    30    16    40    1
    31    18    19   ar
    32    18    23   ar
    33    19    20   ar
    34    19    41    1
    35    20    21   ar
    36    20    42    1
    37    21    22   ar
    38    21    24    1
    39    22    23   ar
    40    22    43    1
    41    23    44    1
    42    24    45    1
    43    26    46    1
    44    27    47    1
    45    28    48    1
    46    29    49    1
    47    30    50    1
    48     1    31    1
    49     1    27    1
    50     2    32    1
    51     2    28    1
    52     4    34    1
    53     4    30    1
