@<TRIPOS>MOLECULE
*****
 50 53 0 0 0
SMALL
GASTEIGER

@<TRIPOS>ATOM
     1 C         -0.225672   -1.301974   1.739178 C.3        1 UNL1     0.1889
     2 C         -0.404112   -0.994092   0.228116 C.3        1 UNL1     0.1342
     3 C         -1.853348   -1.073585   -0.275729 C.3        1 UNL1     0.1174
     4 C         -2.667105   -2.163086   0.427056 C.3        1 UNL1     0.1456
     5 C         -2.485139   -2.142172   1.95572 C.3        1 UNL1     0.2326
     6 O         -1.103867   -2.276537   2.282681 O.3        1 UNL1     -0.3076
     7 O         -3.109946   -1.012508   2.591955 O.3        1 UNL1     -0.4605
     8 C         -3.593079   -1.22733   3.87022 C.ar        1 UNL1     0.1310
     9 C         -4.34636   -2.334059   4.276447 C.ar        1 UNL1     0.0226
     10 C         -4.776302   -2.46983   5.601822 C.ar        1 UNL1     0.1343
     11 C         -4.442785   -1.512983   6.559449 C.ar        1 UNL1     0.1007
     12 C         -3.725952   -0.382998   6.156875 C.ar        1 UNL1     0.1389
     13 C         -3.296023   -0.245408   4.823586 C.ar        1 UNL1     0.0229
     14 C         -4.79904   -1.648008   7.990884 C.2        1 UNL1     0.1740
     15 C         -4.171364   -0.644926   8.913596 C.3        1 UNL1     0.0520
     16 C         -4.183257   0.714222   8.227643 C.3        1 UNL1     0.1322
     17 O         -3.436568   0.671365   6.991647 O.3        1 UNL1     -0.4828
     18 C         -5.579065   1.330081   8.104511 C.ar        1 UNL1     -0.0067
     19 C         -5.712068   2.659957   7.655117 C.ar        1 UNL1     -0.0516
     20 C         -6.970129   3.269059   7.576126 C.ar        1 UNL1     -0.0198
     21 C         -8.099563   2.562953   7.949783 C.ar        1 UNL1     0.1169
     22 C         -8.00418   1.240946   8.364556 C.ar        1 UNL1     -0.0198
     23 C         -6.748136   0.625623   8.426081 C.ar        1 UNL1     -0.0516
     24 O         -9.303672   3.201371   7.895526 O.3        1 UNL1     -0.5068
     25 O         -5.494692   -2.559307   8.431438 O.2        1 UNL1     -0.2917
     26 O         -5.508662   -3.572346   5.933021 O.3        1 UNL1     -0.5058
     27 O         -0.167313   -0.139247   2.55001 O.3        1 UNL1     -0.3648
     28 O         0.364605   -1.949682   -0.525957 O.3        1 UNL1     -0.3841
     29 O         -2.480854   0.209063   -0.219315 O.3        1 UNL1     -0.3863
     30 O         -2.258349   -3.455457   -0.071329 O.3        1 UNL1     -0.3829
     31 H         0.763919   -1.758431   1.850696 H        1 UNL1     0.0937
     32 H         0.0   0.0   0.0 H        1 UNL1     0.0671
     33 H         -1.823627   -1.337204   -1.342192 H        1 UNL1     0.0649
     34 H         -3.730168   -2.048851   0.187793 H        1 UNL1     0.0683
     35 H         -2.983653   -3.059188   2.294018 H        1 UNL1     0.1085
     36 H         -4.590579   -3.139628   3.592682 H        1 UNL1     0.0691
     37 H         -2.740286   0.644288   4.535331 H        1 UNL1     0.0691
     38 H         -3.147249   -0.976339   9.115786 H        1 UNL1     0.0385
     39 H         -4.721119   -0.635426   9.860939 H        1 UNL1     0.0385
     40 H         -3.616456   1.404476   8.867023 H        1 UNL1     0.0789
     41 H         -4.83992   3.238475   7.364729 H        1 UNL1     0.0623
     42 H         -7.058418   4.299005   7.239334 H        1 UNL1     0.0654
     43 H         -8.883765   0.673931   8.645155 H        1 UNL1     0.0654
     44 H         -6.711808   -0.411743   8.744512 H        1 UNL1     0.0623
     45 H         -9.143551   4.159002   7.900105 H        1 UNL1     0.2921
     46 H         -5.24896   -3.880029   6.815799 H        1 UNL1     0.2922
     47 H         -0.202368   -0.381605   3.485902 H        1 UNL1     0.2126
     48 H         1.30382   -1.711012   -0.404941 H        1 UNL1     0.2101
     49 H         -3.017627   0.278707   0.586178 H        1 UNL1     0.2100
     50 H         -2.53378   -3.517744   -1.009396 H        1 UNL1     0.2102
@<TRIPOS>BOND
     1     1     2    1
     2     1     6    1
     3     2     3    1
     4     3     4    1
     5     3    29    1
     6     3    33    1
     7     4     5    1
     8     5     6    1
     9     5     7    1
    10     5    35    1
    11     7     8    1
    12     8     9   ar
    13     8    13   ar
    14     9    10   ar
    15     9    36    1
    16    10    11   ar
    17    10    26    1
    18    11    12   ar
    19    11    14    1
    20    12    13   ar
    21    12    17    1
    22    13    37    1
    23    14    15    1
    24    14    25    2
    25    15    16    1
    26    15    38    1
    27    15    39    1
    28    16    17    1
    29    16    18    1
    30    16    40    1
    31    18    19   ar
    32    18    23   ar
    33    19    20   ar
    34    19    41    1
    35    20    21   ar
    36    20    42    1
    37    21    22   ar
    38    21    24    1
    39    22    23   ar
    40    22    43    1
    41    23    44    1
    42    24    45    1
    43    26    46    1
    44    27    47    1
    45    28    48    1
    46    29    49    1
    47    30    50    1
    48     1    31    1
    49     1    27    1
    50     2    32    1
    51     2    28    1
    52     4    34    1
    53     4    30    1
