@<TRIPOS>MOLECULE
*****
 50 53 0 0 0
SMALL
GASTEIGER

@<TRIPOS>ATOM
     1 C         -0.339625   -1.333563   1.696193 C.3        1 UNL1     0.1889
     2 C         -0.466017   -0.974601   0.191164 C.3        1 UNL1     0.1342
     3 C         -1.905764   -0.955359   -0.344767 C.3        1 UNL1     0.1174
     4 C         -2.796801   -2.014166   0.309527 C.3        1 UNL1     0.1456
     5 C         -2.648245   -2.045705   1.841617 C.3        1 UNL1     0.2326
     6 O         -1.28475   -2.269549   2.193248 O.3        1 UNL1     -0.3076
     7 O         -3.220687   -0.899218   2.496749 O.3        1 UNL1     -0.4605
     8 C         -3.733799   -1.117785   3.762636 C.ar        1 UNL1     0.1310
     9 C         -4.5545   -2.189451   4.130447 C.ar        1 UNL1     0.0226
     10 C         -5.010714   -2.333328   5.446148 C.ar        1 UNL1     0.1343
     11 C         -4.637427   -1.42116   6.432275 C.ar        1 UNL1     0.1007
     12 C         -3.851845   -0.324292   6.068233 C.ar        1 UNL1     0.1389
     13 C         -3.395426   -0.178403   4.744667 C.ar        1 UNL1     0.0229
     14 C         -5.021583   -1.571132   7.854979 C.2        1 UNL1     0.1740
     15 C         -4.35151   -0.628745   8.811252 C.3        1 UNL1     0.0520
     16 C         -4.276272   0.74548   8.160253 C.3        1 UNL1     0.1322
     17 O         -3.515292   0.690773   6.933474 O.3        1 UNL1     -0.4828
     18 C         -5.632945   1.44289   8.034626 C.ar        1 UNL1     -0.0067
     19 C         -6.00637   2.014106   6.800739 C.ar        1 UNL1     -0.0516
     20 C         -7.219068   2.700236   6.664524 C.ar        1 UNL1     -0.0198
     21 C         -8.061793   2.828117   7.754151 C.ar        1 UNL1     0.1169
     22 C         -7.737137   2.247751   8.973418 C.ar        1 UNL1     -0.0198
     23 C         -6.533018   1.545724   9.104995 C.ar        1 UNL1     -0.0516
     24 O         -9.216775   3.535682   7.59362 O.3        1 UNL1     -0.5068
     25 O         -5.774164   -2.45189   8.262867 O.2        1 UNL1     -0.2917
     26 O         -5.809198   -3.400119   5.739345 O.3        1 UNL1     -0.5058
     27 O         -0.23222   -0.198829   2.540959 O.3        1 UNL1     -0.3648
     28 O         0.262781   -1.952579   -0.573767 O.3        1 UNL1     -0.3841
     29 O         -2.459042   0.35979   -0.264778 O.3        1 UNL1     -0.3863
     30 O         -2.452506   -3.314142   -0.216982 O.3        1 UNL1     -0.3829
     31 H         0.619121   -1.850021   1.815169 H        1 UNL1     0.0937
     32 H         0.0   0.0   0.0 H        1 UNL1     0.0671
     33 H         -1.867459   -1.191032   -1.417479 H        1 UNL1     0.0649
     34 H         -3.845833   -1.831425   0.051578 H        1 UNL1     0.0683
     35 H         -3.206487   -2.940876   2.143134 H        1 UNL1     0.1085
     36 H         -4.834048   -2.962534   3.423117 H        1 UNL1     0.0691
     37 H         -2.785962   0.684998   4.486625 H        1 UNL1     0.0691
     38 H         -3.350903   -1.023003   9.018312 H        1 UNL1     0.0385
     39 H         -4.913581   -0.611405   9.751227 H        1 UNL1     0.0385
     40 H         -3.680593   1.386158   8.824496 H        1 UNL1     0.0789
     41 H         -5.358123   1.935417   5.932848 H        1 UNL1     0.0623
     42 H         -7.490286   3.146545   5.710972 H        1 UNL1     0.0654
     43 H         -8.396741   2.328925   9.82913 H        1 UNL1     0.0654
     44 H         -6.316276   1.096043   10.069181 H        1 UNL1     0.0623
     45 H         -8.986878   4.446222   7.347083 H        1 UNL1     0.2921
     46 H         -5.40923   -3.91596   6.457221 H        1 UNL1     0.2922
     47 H         0.510574   0.355633   2.264033 H        1 UNL1     0.2126
     48 H         1.198168   -1.879146   -0.302859 H        1 UNL1     0.2101
     49 H         -2.022874   0.940995   -0.908014 H        1 UNL1     0.2100
     50 H         -2.689192   -3.326799   -1.167525 H        1 UNL1     0.2102
@<TRIPOS>BOND
     1     1     2    1
     2     1     6    1
     3     2     3    1
     4     3     4    1
     5     3    29    1
     6     3    33    1
     7     4     5    1
     8     5     6    1
     9     5     7    1
    10     5    35    1
    11     7     8    1
    12     8     9   ar
    13     8    13   ar
    14     9    10   ar
    15     9    36    1
    16    10    11   ar
    17    10    26    1
    18    11    12   ar
    19    11    14    1
    20    12    13   ar
    21    12    17    1
    22    13    37    1
    23    14    15    1
    24    14    25    2
    25    15    16    1
    26    15    38    1
    27    15    39    1
    28    16    17    1
    29    16    18    1
    30    16    40    1
    31    18    19   ar
    32    18    23   ar
    33    19    20   ar
    34    19    41    1
    35    20    21   ar
    36    20    42    1
    37    21    22   ar
    38    21    24    1
    39    22    23   ar
    40    22    43    1
    41    23    44    1
    42    24    45    1
    43    26    46    1
    44    27    47    1
    45    28    48    1
    46    29    49    1
    47    30    50    1
    48     1    31    1
    49     1    27    1
    50     2    32    1
    51     2    28    1
    52     4    34    1
    53     4    30    1
