@<TRIPOS>MOLECULE
*****
 50 53 0 0 0
SMALL
GASTEIGER

@<TRIPOS>ATOM
     1 C         0.245333   1.487914   1.580104 C.3        1 UNL1     0.1889
     2 C         0.758469   0.288863   0.738136 C.3        1 UNL1     0.1342
     3 C         1.155508   -0.947753   1.558871 C.3        1 UNL1     0.1174
     4 C         1.774917   -0.588349   2.911749 C.3        1 UNL1     0.1456
     5 C         0.97007   0.48858   3.661955 C.3        1 UNL1     0.2326
     6 O         0.850221   1.656976   2.853652 O.3        1 UNL1     -0.3076
     7 O         -0.293323   0.014962   4.1628 O.3        1 UNL1     -0.4605
     8 C         -1.407738   0.738383   3.777744 C.ar        1 UNL1     0.1310
     9 C         -1.386981   1.928895   3.043202 C.ar        1 UNL1     0.0226
     10 C         -2.573888   2.579821   2.6862 C.ar        1 UNL1     0.1343
     11 C         -3.81237   2.042839   3.034985 C.ar        1 UNL1     0.1007
     12 C         -3.844876   0.876316   3.803719 C.ar        1 UNL1     0.1389
     13 C         -2.651242   0.223419   4.164821 C.ar        1 UNL1     0.0229
     14 C         -5.098559   2.643791   2.61222 C.2        1 UNL1     0.1740
     15 C         -6.321455   1.817635   2.883401 C.3        1 UNL1     0.0520
     16 C         -6.171423   1.170102   4.253127 C.3        1 UNL1     0.1322
     17 O         -5.003855   0.320262   4.293452 O.3        1 UNL1     -0.4828
     18 C         -6.277003   2.158636   5.416905 C.ar        1 UNL1     -0.0067
     19 C         -6.907503   1.75634   6.612247 C.ar        1 UNL1     -0.0516
     20 C         -7.062957   2.650237   7.678428 C.ar        1 UNL1     -0.0198
     21 C         -6.599842   3.948366   7.559208 C.ar        1 UNL1     0.1169
     22 C         -5.944916   4.364426   6.407338 C.ar        1 UNL1     -0.0198
     23 C         -5.772908   3.465363   5.34802 C.ar        1 UNL1     -0.0516
     24 O         -6.802803   4.801473   8.603916 O.3        1 UNL1     -0.5068
     25 O         -5.180318   3.708683   2.00575 O.2        1 UNL1     -0.2917
     26 O         -2.484687   3.737969   1.970434 O.3        1 UNL1     -0.5058
     27 O         -1.169421   1.559289   1.658616 O.3        1 UNL1     -0.3648
     28 O         1.925026   0.710665   0.00743 O.3        1 UNL1     -0.3841
     29 O         0.055785   -1.852676   1.676581 O.3        1 UNL1     -0.3863
     30 O         3.118794   -0.102292   2.703344 O.3        1 UNL1     -0.3829
     31 H         0.531476   2.395932   1.038158 H        1 UNL1     0.0937
     32 H         0.0   -0.0   0.0 H        1 UNL1     0.0671
     33 H         1.923205   -1.493592   0.992812 H        1 UNL1     0.0649
     34 H         1.851557   -1.48422   3.537802 H        1 UNL1     0.0683
     35 H         1.61095   0.753359   4.512275 H        1 UNL1     0.1085
     36 H         -0.458574   2.367326   2.693975 H        1 UNL1     0.0691
     37 H         -2.703609   -0.68272   4.76454 H        1 UNL1     0.0691
     38 H         -6.39173   1.06119   2.094491 H        1 UNL1     0.0385
     39 H         -7.20796   2.458142   2.823077 H        1 UNL1     0.0385
     40 H         -7.017219   0.480808   4.379712 H        1 UNL1     0.0789
     41 H         -7.287796   0.745493   6.727213 H        1 UNL1     0.0623
     42 H         -7.561488   2.3315   8.590505 H        1 UNL1     0.0654
     43 H         -5.564973   5.374336   6.309178 H        1 UNL1     0.0654
     44 H         -5.247249   3.821253   4.467184 H        1 UNL1     0.0623
     45 H         -7.665756   4.60038   9.000893 H        1 UNL1     0.2921
     46 H         -1.813234   3.638873   1.277078 H        1 UNL1     0.2922
     47 H         -1.435601   2.133767   2.39004 H        1 UNL1     0.2126
     48 H         1.643922   0.837511   -0.919189 H        1 UNL1     0.2101
     49 H         0.357047   -2.689403   2.065068 H        1 UNL1     0.2100
     50 H         3.609402   -0.201848   3.545428 H        1 UNL1     0.2102
@<TRIPOS>BOND
     1     1     2    1
     2     1     6    1
     3     2     3    1
     4     3     4    1
     5     3    29    1
     6     3    33    1
     7     4     5    1
     8     5     6    1
     9     5     7    1
    10     5    35    1
    11     7     8    1
    12     8     9   ar
    13     8    13   ar
    14     9    10   ar
    15     9    36    1
    16    10    11   ar
    17    10    26    1
    18    11    12   ar
    19    11    14    1
    20    12    13   ar
    21    12    17    1
    22    13    37    1
    23    14    15    1
    24    14    25    2
    25    15    16    1
    26    15    38    1
    27    15    39    1
    28    16    17    1
    29    16    18    1
    30    16    40    1
    31    18    19   ar
    32    18    23   ar
    33    19    20   ar
    34    19    41    1
    35    20    21   ar
    36    20    42    1
    37    21    22   ar
    38    21    24    1
    39    22    23   ar
    40    22    43    1
    41    23    44    1
    42    24    45    1
    43    26    46    1
    44    27    47    1
    45    28    48    1
    46    29    49    1
    47    30    50    1
    48     1    31    1
    49     1    27    1
    50     2    32    1
    51     2    28    1
    52     4    34    1
    53     4    30    1
