@<TRIPOS>MOLECULE
*****
 50 53 0 0 0
SMALL
GASTEIGER

@<TRIPOS>ATOM
     1 C         0.988669   1.945067   -0.100262 C.3        1 UNL1     0.1889
     2 C         0.834157   0.517523   0.48981 C.3        1 UNL1     0.1342
     3 C         0.628139   0.471528   2.01162 C.3        1 UNL1     0.1174
     4 C         1.39898   1.569779   2.748348 C.3        1 UNL1     0.1456
     5 C         1.235324   2.950637   2.087432 C.3        1 UNL1     0.2326
     6 O         1.652899   2.890215   0.725504 O.3        1 UNL1     -0.3076
     7 O         -0.079405   3.512594   2.251787 O.3        1 UNL1     -0.4605
     8 C         -0.134847   4.8832   2.430376 C.ar        1 UNL1     0.1310
     9 C         0.957032   5.706852   2.724822 C.ar        1 UNL1     0.0226
     10 C         0.801318   7.090467   2.870642 C.ar        1 UNL1     0.1343
     11 C         -0.447229   7.68753   2.70186 C.ar        1 UNL1     0.1007
     12 C         -1.552277   6.87064   2.4482 C.ar        1 UNL1     0.1389
     13 C         -1.395901   5.479147   2.30424 C.ar        1 UNL1     0.0229
     14 C         -0.653738   9.153108   2.761766 C.2        1 UNL1     0.1740
     15 C         -2.009788   9.635594   2.337638 C.3        1 UNL1     0.0520
     16 C         -3.055942   8.67357   2.883558 C.3        1 UNL1     0.1322
     17 O         -2.843109   7.33975   2.371019 O.3        1 UNL1     -0.4828
     18 C         -3.229726   8.749293   4.40237 C.ar        1 UNL1     -0.0067
     19 C         -2.240691   8.195552   5.241057 C.ar        1 UNL1     -0.0516
     20 C         -2.391198   8.205673   6.632893 C.ar        1 UNL1     -0.0198
     21 C         -3.527016   8.758711   7.196713 C.ar        1 UNL1     0.1169
     22 C         -4.502815   9.341603   6.398658 C.ar        1 UNL1     -0.0198
     23 C         -4.343903   9.348107   5.007701 C.ar        1 UNL1     -0.0516
     24 O         -3.656471   8.716527   8.553866 O.3        1 UNL1     -0.5068
     25 O         0.23335   9.949359   3.057645 O.2        1 UNL1     -0.2917
     26 O         1.906083   7.837432   3.15895 O.3        1 UNL1     -0.5058
     27 O         -0.217008   2.470415   -0.63237 O.3        1 UNL1     -0.3648
     28 O         2.029703   -0.229078   0.196614 O.3        1 UNL1     -0.3841
     29 O         -0.763838   0.460398   2.334744 O.3        1 UNL1     -0.3863
     30 O         2.802361   1.229652   2.771306 O.3        1 UNL1     -0.3829
     31 H         1.649936   1.854607   -0.968952 H        1 UNL1     0.0937
     32 H         0.0   0.0   0.0 H        1 UNL1     0.0671
     33 H         1.019502   -0.489279   2.374116 H        1 UNL1     0.0649
     34 H         1.065661   1.625862   3.790535 H        1 UNL1     0.0683
     35 H         1.959328   3.583988   2.615225 H        1 UNL1     0.1085
     36 H         1.962735   5.310709   2.812873 H        1 UNL1     0.0691
     37 H         -2.27221   4.865095   2.107987 H        1 UNL1     0.0691
     38 H         -2.026148   9.657112   1.242743 H        1 UNL1     0.0385
     39 H         -2.157186   10.65796   2.702083 H        1 UNL1     0.0385
     40 H         -4.024883   8.977273   2.464705 H        1 UNL1     0.0789
     41 H         -1.344248   7.747308   4.822586 H        1 UNL1     0.0623
     42 H         -1.627072   7.764894   7.268375 H        1 UNL1     0.0654
     43 H         -5.38912   9.790893   6.830529 H        1 UNL1     0.0654
     44 H         -5.120975   9.821518   4.415345 H        1 UNL1     0.0623
     45 H         -4.349089   8.073382   8.776039 H        1 UNL1     0.2921
     46 H         1.676839   8.779689   3.127155 H        1 UNL1     0.2922
     47 H         -0.583126   1.865569   -1.292657 H        1 UNL1     0.2126
     48 H         2.66973   -0.021487   0.90443 H        1 UNL1     0.2101
     49 H         -0.880068   0.327   3.28894 H        1 UNL1     0.2100
     50 H         2.91435   0.450918   3.355039 H        1 UNL1     0.2102
@<TRIPOS>BOND
     1     1     2    1
     2     1     6    1
     3     2     3    1
     4     3     4    1
     5     3    29    1
     6     3    33    1
     7     4     5    1
     8     5     6    1
     9     5     7    1
    10     5    35    1
    11     7     8    1
    12     8     9   ar
    13     8    13   ar
    14     9    10   ar
    15     9    36    1
    16    10    11   ar
    17    10    26    1
    18    11    12   ar
    19    11    14    1
    20    12    13   ar
    21    12    17    1
    22    13    37    1
    23    14    15    1
    24    14    25    2
    25    15    16    1
    26    15    38    1
    27    15    39    1
    28    16    17    1
    29    16    18    1
    30    16    40    1
    31    18    19   ar
    32    18    23   ar
    33    19    20   ar
    34    19    41    1
    35    20    21   ar
    36    20    42    1
    37    21    22   ar
    38    21    24    1
    39    22    23   ar
    40    22    43    1
    41    23    44    1
    42    24    45    1
    43    26    46    1
    44    27    47    1
    45    28    48    1
    46    29    49    1
    47    30    50    1
    48     1    31    1
    49     1    27    1
    50     2    32    1
    51     2    28    1
    52     4    34    1
    53     4    30    1
