@<TRIPOS>MOLECULE
*****
 50 53 0 0 0
SMALL
GASTEIGER

@<TRIPOS>ATOM
     1 C         -0.335186   -1.330346   1.699599 C.3        1 UNL1     0.1889
     2 C         -0.46399   -0.975025   0.19391 C.3        1 UNL1     0.1342
     3 C         -1.904392   -0.959657   -0.340383 C.3        1 UNL1     0.1174
     4 C         -2.792707   -2.018626   0.317341 C.3        1 UNL1     0.1456
     5 C         -2.642312   -2.046423   1.849325 C.3        1 UNL1     0.2326
     6 O         -1.277998   -2.26695   2.199871 O.3        1 UNL1     -0.3076
     7 O         -3.216113   -0.899516   2.502529 O.3        1 UNL1     -0.4605
     8 C         -3.727349   -1.116166   3.769506 C.ar        1 UNL1     0.1310
     9 C         -4.545637   -2.188511   4.140695 C.ar        1 UNL1     0.0226
     10 C         -5.000055   -2.330253   5.457249 C.ar        1 UNL1     0.1343
     11 C         -4.627311   -1.415167   6.440876 C.ar        1 UNL1     0.1007
     12 C         -3.844184   -0.317676   6.073439 C.ar        1 UNL1     0.1389
     13 C         -3.389574   -0.17394   4.749014 C.ar        1 UNL1     0.0229
     14 C         -5.009536   -1.562629   7.864362 C.2        1 UNL1     0.1740
     15 C         -4.340098   -0.616843   8.81772 C.3        1 UNL1     0.0520
     16 C         -4.26816   0.756042   8.163528 C.3        1 UNL1     0.1322
     17 O         -3.508506   0.699965   6.935989 O.3        1 UNL1     -0.4828
     18 C         -5.626267   1.450657   8.037906 C.ar        1 UNL1     -0.0067
     19 C         -6.002182   2.018388   6.803167 C.ar        1 UNL1     -0.0516
     20 C         -7.216305   2.701965   6.666815 C.ar        1 UNL1     -0.0198
     21 C         -8.057999   2.830754   7.757132 C.ar        1 UNL1     0.1169
     22 C         -7.730852   2.25375   8.977329 C.ar        1 UNL1     -0.0198
     23 C         -6.525284   1.55425   9.109089 C.ar        1 UNL1     -0.0516
     24 O         -9.214474   3.535818   7.596349 O.3        1 UNL1     -0.5068
     25 O         -5.760012   -2.44385   8.275117 O.2        1 UNL1     -0.2917
     26 O         -5.796222   -3.397852   5.753788 O.3        1 UNL1     -0.5058
     27 O         -0.228899   -0.193506   2.541671 O.3        1 UNL1     -0.3648
     28 O         0.265728   -1.953383   -0.569656 O.3        1 UNL1     -0.3841
     29 O         -2.46001   0.354645   -0.262723 O.3        1 UNL1     -0.3863
     30 O         -2.446618   -3.319152   -0.206628 O.3        1 UNL1     -0.3829
     31 H         0.624653   -1.844761   1.818624 H        1 UNL1     0.0937
     32 H         0.0   0.0   0.0 H        1 UNL1     0.0671
     33 H         -1.866897   -1.197687   -1.412603 H        1 UNL1     0.0649
     34 H         -3.842374   -1.838409   0.060203 H        1 UNL1     0.0683
     35 H         -3.198546   -2.941939   2.153516 H        1 UNL1     0.1085
     36 H         -4.824576   -2.963709   3.435442 H        1 UNL1     0.0691
     37 H         -2.78201   0.690001   4.48831 H        1 UNL1     0.0691
     38 H         -3.338523   -1.008781   9.024504 H        1 UNL1     0.0385
     39 H         -4.901108   -0.598414   9.758308 H        1 UNL1     0.0385
     40 H         -3.672896   1.399321   8.825625 H        1 UNL1     0.0789
     41 H         -5.354799   1.938933   5.934701 H        1 UNL1     0.0623
     42 H         -7.489456   3.145613   5.712574 H        1 UNL1     0.0654
     43 H         -8.389611   2.335641   9.833624 H        1 UNL1     0.0654
     44 H         -6.30659   1.107153   10.074036 H        1 UNL1     0.0623
     45 H         -8.986617   4.445488   7.344757 H        1 UNL1     0.2921
     46 H         -5.394121   -3.911715   6.471891 H        1 UNL1     0.2922
     47 H         0.513393   0.360992   2.263475 H        1 UNL1     0.2126
     48 H         1.199476   -1.885395   -0.291765 H        1 UNL1     0.2101
     49 H         -2.019939   0.937277   -0.901998 H        1 UNL1     0.2100
     50 H         -2.679163   -3.332476   -1.158183 H        1 UNL1     0.2102
@<TRIPOS>BOND
     1     1     2    1
     2     1     6    1
     3     2     3    1
     4     3     4    1
     5     3    29    1
     6     3    33    1
     7     4     5    1
     8     5     6    1
     9     5     7    1
    10     5    35    1
    11     7     8    1
    12     8     9   ar
    13     8    13   ar
    14     9    10   ar
    15     9    36    1
    16    10    11   ar
    17    10    26    1
    18    11    12   ar
    19    11    14    1
    20    12    13   ar
    21    12    17    1
    22    13    37    1
    23    14    15    1
    24    14    25    2
    25    15    16    1
    26    15    38    1
    27    15    39    1
    28    16    17    1
    29    16    18    1
    30    16    40    1
    31    18    19   ar
    32    18    23   ar
    33    19    20   ar
    34    19    41    1
    35    20    21   ar
    36    20    42    1
    37    21    22   ar
    38    21    24    1
    39    22    23   ar
    40    22    43    1
    41    23    44    1
    42    24    45    1
    43    26    46    1
    44    27    47    1
    45    28    48    1
    46    29    49    1
    47    30    50    1
    48     1    31    1
    49     1    27    1
    50     2    32    1
    51     2    28    1
    52     4    34    1
    53     4    30    1
