@<TRIPOS>MOLECULE
*****
 50 53 0 0 0
SMALL
GASTEIGER

@<TRIPOS>ATOM
     1 C         1.002019   0.892728   1.72331 C.3        1 UNL1     0.1889
     2 C         1.025864   0.188638   0.339971 C.3        1 UNL1     0.1342
     3 C         1.815746   -1.128667   0.304453 C.3        1 UNL1     0.1174
     4 C         3.041086   -1.110861   1.2217 C.3        1 UNL1     0.1456
     5 C         2.722792   -0.553306   2.621052 C.3        1 UNL1     0.2326
     6 O         2.177424   0.759265   2.508807 O.3        1 UNL1     -0.3076
     7 O         1.913479   -1.435974   3.41932 O.3        1 UNL1     -0.4605
     8 C         0.904169   -0.836906   4.151398 C.ar        1 UNL1     0.1310
     9 C         1.005697   -0.423165   5.483994 C.ar        1 UNL1     0.0226
     10 C         -0.070596   0.191385   6.135011 C.ar        1 UNL1     0.1343
     11 C         -1.267867   0.42886   5.461225 C.ar        1 UNL1     0.1007
     12 C         -1.395108   -0.016787   4.142895 C.ar        1 UNL1     0.1389
     13 C         -0.313647   -0.637068   3.489349 C.ar        1 UNL1     0.0229
     14 C         -2.407779   1.149203   6.074299 C.2        1 UNL1     0.1740
     15 C         -3.524695   1.511854   5.140205 C.3        1 UNL1     0.0520
     16 C         -3.754658   0.345896   4.188566 C.3        1 UNL1     0.1322
     17 O         -2.56288   0.067889   3.420811 O.3        1 UNL1     -0.4828
     18 C         -4.379172   -0.881185   4.857131 C.ar        1 UNL1     -0.0067
     19 C         -5.705569   -1.241463   4.542355 C.ar        1 UNL1     -0.0516
     20 C         -6.322777   -2.329585   5.170852 C.ar        1 UNL1     -0.0198
     21 C         -5.628315   -3.059241   6.119089 C.ar        1 UNL1     0.1169
     22 C         -4.309718   -2.749491   6.426003 C.ar        1 UNL1     -0.0198
     23 C         -3.686137   -1.672784   5.784206 C.ar        1 UNL1     -0.0516
     24 O         -6.274692   -4.08877   6.73769 O.3        1 UNL1     -0.5068
     25 O         -2.427418   1.509172   7.248404 O.2        1 UNL1     -0.2917
     26 O         0.092892   0.570261   7.435514 O.3        1 UNL1     -0.5058
     27 O         -0.166754   0.616047   2.478429 O.3        1 UNL1     -0.3648
     28 O         1.633984   1.078631   -0.614392 O.3        1 UNL1     -0.3841
     29 O         0.955418   -2.242577   0.551787 O.3        1 UNL1     -0.3863
     30 O         4.070932   -0.296059   0.620698 O.3        1 UNL1     -0.3829
     31 H         0.946924   1.96883   1.525703 H        1 UNL1     0.0937
     32 H         0.0   -0.0   0.0 H        1 UNL1     0.0671
     33 H         2.1877   -1.269125   -0.720067 H        1 UNL1     0.0649
     34 H         3.449488   -2.122775   1.319877 H        1 UNL1     0.0683
     35 H         3.70703   -0.450302   3.094914 H        1 UNL1     0.1085
     36 H         1.927678   -0.528752   6.045175 H        1 UNL1     0.0691
     37 H         -0.438624   -0.975878   2.463151 H        1 UNL1     0.0691
     38 H         -3.221666   2.4124   4.595489 H        1 UNL1     0.0385
     39 H         -4.418972   1.750968   5.725757 H        1 UNL1     0.0385
     40 H         -4.490486   0.676729   3.443162 H        1 UNL1     0.0789
     41 H         -6.275077   -0.679039   3.808195 H        1 UNL1     0.0623
     42 H         -7.350033   -2.59012   4.928203 H        1 UNL1     0.0654
     43 H         -3.751673   -3.323541   7.156046 H        1 UNL1     0.0654
     44 H         -2.651653   -1.465626   6.040669 H        1 UNL1     0.0623
     45 H         -7.001774   -3.721232   7.26588 H        1 UNL1     0.2921
     46 H         -0.427359   -0.013159   8.010295 H        1 UNL1     0.2922
     47 H         -0.232442   1.223564   3.228408 H        1 UNL1     0.2126
     48 H         0.912919   1.419321   -1.178065 H        1 UNL1     0.2101
     49 H         1.251779   -3.009362   0.036029 H        1 UNL1     0.2100
     50 H         3.859886   -0.196721   -0.330777 H        1 UNL1     0.2102
@<TRIPOS>BOND
     1     1     2    1
     2     1     6    1
     3     2     3    1
     4     3     4    1
     5     3    29    1
     6     3    33    1
     7     4     5    1
     8     5     6    1
     9     5     7    1
    10     5    35    1
    11     7     8    1
    12     8     9   ar
    13     8    13   ar
    14     9    10   ar
    15     9    36    1
    16    10    11   ar
    17    10    26    1
    18    11    12   ar
    19    11    14    1
    20    12    13   ar
    21    12    17    1
    22    13    37    1
    23    14    15    1
    24    14    25    2
    25    15    16    1
    26    15    38    1
    27    15    39    1
    28    16    17    1
    29    16    18    1
    30    16    40    1
    31    18    19   ar
    32    18    23   ar
    33    19    20   ar
    34    19    41    1
    35    20    21   ar
    36    20    42    1
    37    21    22   ar
    38    21    24    1
    39    22    23   ar
    40    22    43    1
    41    23    44    1
    42    24    45    1
    43    26    46    1
    44    27    47    1
    45    28    48    1
    46    29    49    1
    47    30    50    1
    48     1    31    1
    49     1    27    1
    50     2    32    1
    51     2    28    1
    52     4    34    1
    53     4    30    1
