@<TRIPOS>MOLECULE
*****
 50 53 0 0 0
SMALL
GASTEIGER

@<TRIPOS>ATOM
     1 C         -0.332193   -1.328367   1.701732 C.3        1 UNL1     0.1889
     2 C         -0.462563   -0.975358   0.195635 C.3        1 UNL1     0.1342
     3 C         -1.903374   -0.962647   -0.337626 C.3        1 UNL1     0.1174
     4 C         -2.789813   -2.021847   0.322252 C.3        1 UNL1     0.1456
     5 C         -2.638264   -2.047267   1.854163 C.3        1 UNL1     0.2326
     6 O         -1.273406   -2.265499   2.204025 O.3        1 UNL1     -0.3076
     7 O         -3.2131   -0.900188   2.506156 O.3        1 UNL1     -0.4605
     8 C         -3.723126   -1.115708   3.773813 C.ar        1 UNL1     0.1310
     9 C         -4.539729   -2.188601   4.147124 C.ar        1 UNL1     0.0226
     10 C         -4.993   -2.329068   5.464211 C.ar        1 UNL1     0.1343
     11 C         -4.620745   -1.412094   6.446262 C.ar        1 UNL1     0.1007
     12 C         -3.839332   -0.314097   6.076693 C.ar        1 UNL1     0.1389
     13 C         -3.385878   -0.171646   4.751734 C.ar        1 UNL1     0.0229
     14 C         -5.001736   -1.558034   7.870236 C.2        1 UNL1     0.1740
     15 C         -4.332849   -0.610013   8.821759 C.3        1 UNL1     0.0520
     16 C         -4.263198   0.762034   8.165563 C.3        1 UNL1     0.1322
     17 O         -3.504366   0.705211   6.937551 O.3        1 UNL1     -0.4828
     18 C         -5.62231   1.454681   8.039948 C.ar        1 UNL1     -0.0067
     19 C         -6.000266   2.019343   6.804424 C.ar        1 UNL1     -0.0516
     20 C         -7.215391   2.701109   6.667946 C.ar        1 UNL1     -0.0198
     21 C         -8.056072   2.831137   7.758897 C.ar        1 UNL1     0.1169
     22 C         -7.726888   2.257111   8.979951 C.ar        1 UNL1     -0.0198
     23 C         -6.520302   1.5594   9.11188 C.ar        1 UNL1     -0.0516
     24 O         -9.213604   3.534412   7.597881 O.3        1 UNL1     -0.5068
     25 O         -5.750751   -2.439658   8.282792 O.2        1 UNL1     -0.2917
     26 O         -5.787543   -3.397291   5.762849 O.3        1 UNL1     -0.5058
     27 O         -0.22679   -0.190192   2.54211 O.3        1 UNL1     -0.3648
     28 O         0.267885   -1.95384   -0.567073 O.3        1 UNL1     -0.3841
     29 O         -2.460666   0.351032   -0.261428 O.3        1 UNL1     -0.3863
     30 O         -2.442394   -3.32266   -0.200121 O.3        1 UNL1     -0.3829
     31 H         0.628408   -1.841348   1.820787 H        1 UNL1     0.0937
     32 H         0.0   0.0   0.0 H        1 UNL1     0.0671
     33 H         -1.866348   -1.202151   -1.409534 H        1 UNL1     0.0649
     34 H         -3.839904   -1.843377   0.065626 H        1 UNL1     0.0683
     35 H         -3.193096   -2.943081   2.160033 H        1 UNL1     0.1085
     36 H         -4.81816   -2.965167   3.443177 H        1 UNL1     0.0691
     37 H         -2.779643   0.692721   4.489358 H        1 UNL1     0.0691
     38 H         -3.330609   -1.000338   9.028367 H        1 UNL1     0.0385
     39 H         -4.893197   -0.590985   9.76273 H        1 UNL1     0.0385
     40 H         -3.668299   1.407037   8.82631 H        1 UNL1     0.0789
     41 H         -5.353719   1.938872   5.935429 H        1 UNL1     0.0623
     42 H         -7.490127   3.142407   5.71307 H        1 UNL1     0.0654
     43 H         -8.384827   2.339978   9.836782 H        1 UNL1     0.0654
     44 H         -6.300009   1.114609   10.077528 H        1 UNL1     0.0623
     45 H         -8.987313   4.442336   7.338684 H        1 UNL1     0.2921
     46 H         -5.383897   -3.909992   6.480915 H        1 UNL1     0.2922
     47 H         0.516261   0.363474   2.264283 H        1 UNL1     0.2126
     48 H         1.200801   -1.88813   -0.285858 H        1 UNL1     0.2101
     49 H         -2.021711   0.933377   -0.901731 H        1 UNL1     0.2100
     50 H         -2.675614   -3.337644   -1.151486 H        1 UNL1     0.2102
@<TRIPOS>BOND
     1     1     2    1
     2     1     6    1
     3     2     3    1
     4     3     4    1
     5     3    29    1
     6     3    33    1
     7     4     5    1
     8     5     6    1
     9     5     7    1
    10     5    35    1
    11     7     8    1
    12     8     9   ar
    13     8    13   ar
    14     9    10   ar
    15     9    36    1
    16    10    11   ar
    17    10    26    1
    18    11    12   ar
    19    11    14    1
    20    12    13   ar
    21    12    17    1
    22    13    37    1
    23    14    15    1
    24    14    25    2
    25    15    16    1
    26    15    38    1
    27    15    39    1
    28    16    17    1
    29    16    18    1
    30    16    40    1
    31    18    19   ar
    32    18    23   ar
    33    19    20   ar
    34    19    41    1
    35    20    21   ar
    36    20    42    1
    37    21    22   ar
    38    21    24    1
    39    22    23   ar
    40    22    43    1
    41    23    44    1
    42    24    45    1
    43    26    46    1
    44    27    47    1
    45    28    48    1
    46    29    49    1
    47    30    50    1
    48     1    31    1
    49     1    27    1
    50     2    32    1
    51     2    28    1
    52     4    34    1
    53     4    30    1
