@<TRIPOS>MOLECULE
*****
 50 53 0 0 0
SMALL
GASTEIGER

@<TRIPOS>ATOM
     1 C         1.421355   1.657929   -0.042744 C.3        1 UNL1     0.1889
     2 C         0.342928   0.76266   -0.710149 C.3        1 UNL1     0.1342
     3 C         0.794655   0.07312   -2.006661 C.3        1 UNL1     0.1174
     4 C         1.753221   0.933591   -2.833617 C.3        1 UNL1     0.1456
     5 C         2.870027   1.560561   -1.979206 C.3        1 UNL1     0.2326
     6 O         2.299982   2.336855   -0.927882 O.3        1 UNL1     -0.3076
     7 O         3.841148   0.60532   -1.514706 O.3        1 UNL1     -0.4605
     8 C         4.793026   1.087693   -0.634494 C.ar        1 UNL1     0.1310
     9 C         6.083961   1.499455   -0.982688 C.ar        1 UNL1     0.0226
     10 C         6.971767   1.99072   -0.018135 C.ar        1 UNL1     0.1343
     11 C         6.581597   2.104544   1.315526 C.ar        1 UNL1     0.1007
     12 C         5.309175   1.658207   1.682281 C.ar        1 UNL1     0.1389
     13 C         4.417602   1.161816   0.712682 C.ar        1 UNL1     0.0229
     14 C         7.449466   2.694515   2.360941 C.2        1 UNL1     0.1740
     15 C         6.791753   2.943397   3.686467 C.3        1 UNL1     0.0520
     16 C         5.877111   1.767057   3.998895 C.3        1 UNL1     0.1322
     17 O         4.860752   1.623628   2.982276 O.3        1 UNL1     -0.4828
     18 C         6.626999   0.475228   4.332914 C.ar        1 UNL1     -0.0067
     19 C         8.035119   0.490677   4.404831 C.ar        1 UNL1     -0.0516
     20 C         8.754193   -0.682841   4.661254 C.ar        1 UNL1     -0.0198
     21 C         8.07873   -1.876858   4.839859 C.ar        1 UNL1     0.1169
     22 C         6.690872   -1.917861   4.808094 C.ar        1 UNL1     -0.0198
     23 C         5.970716   -0.741109   4.570006 C.ar        1 UNL1     -0.0516
     24 O         8.814378   -3.006045   5.05 O.3        1 UNL1     -0.5068
     25 O         8.610403   3.041143   2.159546 O.2        1 UNL1     -0.2917
     26 O         8.216863   2.374669   -0.422985 O.3        1 UNL1     -0.5058
     27 O         2.128834   1.007847   1.00112 O.3        1 UNL1     -0.3648
     28 O         -0.794047   1.583775   -1.035361 O.3        1 UNL1     -0.3841
     29 O         1.315672   -1.22918   -1.733369 O.3        1 UNL1     -0.3863
     30 O         1.007754   1.992665   -3.472625 O.3        1 UNL1     -0.3829
     31 H         0.885837   2.47073   0.459902 H        1 UNL1     0.0937
     32 H         0.0   -0.0   0.0 H        1 UNL1     0.0671
     33 H         -0.097573   -0.093691   -2.626197 H        1 UNL1     0.0649
     34 H         2.202715   0.331679   -3.63115 H        1 UNL1     0.0683
     35 H         3.363415   2.262818   -2.662786 H        1 UNL1     0.1085
     36 H         6.428099   1.488315   -2.011068 H        1 UNL1     0.0691
     37 H         3.433018   0.819659   1.024156 H        1 UNL1     0.0691
     38 H         6.222378   3.875339   3.603868 H        1 UNL1     0.0385
     39 H         7.564564   3.081279   4.450358 H        1 UNL1     0.0385
     40 H         5.319794   2.02343   4.910044 H        1 UNL1     0.0789
     41 H         8.589105   1.413462   4.259167 H        1 UNL1     0.0623
     42 H         9.840378   -0.660176   4.702472 H        1 UNL1     0.0654
     43 H         6.151224   -2.844757   4.961569 H        1 UNL1     0.0654
     44 H         4.887056   -0.80796   4.562454 H        1 UNL1     0.0623
     45 H         9.366692   -3.16241   4.266919 H        1 UNL1     0.2921
     46 H         8.497344   3.151561   0.086113 H        1 UNL1     0.2922
     47 H         2.589153   1.658508   1.549397 H        1 UNL1     0.2126
     48 H         -1.215563   1.825964   -0.188365 H        1 UNL1     0.2101
     49 H         0.9908   -1.860179   -2.395254 H        1 UNL1     0.2100
     50 H         0.055781   1.83674   -3.3019 H        1 UNL1     0.2102
@<TRIPOS>BOND
     1     1     2    1
     2     1     6    1
     3     2     3    1
     4     3     4    1
     5     3    29    1
     6     3    33    1
     7     4     5    1
     8     5     6    1
     9     5     7    1
    10     5    35    1
    11     7     8    1
    12     8     9   ar
    13     8    13   ar
    14     9    10   ar
    15     9    36    1
    16    10    11   ar
    17    10    26    1
    18    11    12   ar
    19    11    14    1
    20    12    13   ar
    21    12    17    1
    22    13    37    1
    23    14    15    1
    24    14    25    2
    25    15    16    1
    26    15    38    1
    27    15    39    1
    28    16    17    1
    29    16    18    1
    30    16    40    1
    31    18    19   ar
    32    18    23   ar
    33    19    20   ar
    34    19    41    1
    35    20    21   ar
    36    20    42    1
    37    21    22   ar
    38    21    24    1
    39    22    23   ar
    40    22    43    1
    41    23    44    1
    42    24    45    1
    43    26    46    1
    44    27    47    1
    45    28    48    1
    46    29    49    1
    47    30    50    1
    48     1    31    1
    49     1    27    1
    50     2    32    1
    51     2    28    1
    52     4    34    1
    53     4    30    1
