@<TRIPOS>MOLECULE
*****
 50 53 0 0 0
SMALL
GASTEIGER

@<TRIPOS>ATOM
     1 C         -0.190611   -1.253218   1.77874 C.3        1 UNL1     0.1889
     2 C         -0.382049   -0.994991   0.259987 C.3        1 UNL1     0.1342
     3 C         -1.831452   -1.120056   -0.234032 C.3        1 UNL1     0.1174
     4 C         -2.618981   -2.204623   0.505312 C.3        1 UNL1     0.1456
     5 C         -2.430882   -2.13367   2.031729 C.3        1 UNL1     0.2326
     6 O         -1.04568   -2.229093   2.355731 O.3        1 UNL1     -0.3076
     7 O         -3.076634   -0.998626   2.636709 O.3        1 UNL1     -0.4605
     8 C         -3.549588   -1.184768   3.923253 C.ar        1 UNL1     0.1310
     9 C         -4.280557   -2.292636   4.365535 C.ar        1 UNL1     0.0226
     10 C         -4.701546   -2.397435   5.696582 C.ar        1 UNL1     0.1343
     11 C         -4.380946   -1.407161   6.624167 C.ar        1 UNL1     0.1007
     12 C         -3.686826   -0.276603   6.185054 C.ar        1 UNL1     0.1389
     13 C         -3.265921   -0.170218   4.846042 C.ar        1 UNL1     0.0229
     14 C         -4.727763   -1.506783   8.060811 C.2        1 UNL1     0.1740
     15 C         -4.11407   -0.46599   8.950575 C.3        1 UNL1     0.0520
     16 C         -4.1541   0.87212   8.225444 C.3        1 UNL1     0.1322
     17 O         -3.412725   0.806744   6.987235 O.3        1 UNL1     -0.4828
     18 C         -5.561503   1.458731   8.091924 C.ar        1 UNL1     -0.0067
     19 C         -5.993089   1.945509   6.840926 C.ar        1 UNL1     -0.0516
     20 C         -7.256222   2.531311   6.695004 C.ar        1 UNL1     -0.0198
     21 C         -8.092303   2.642642   7.791544 C.ar        1 UNL1     0.1169
     22 C         -7.708828   2.142421   9.029108 C.ar        1 UNL1     -0.0198
     23 C         -6.453095   1.53993   9.171214 C.ar        1 UNL1     -0.0516
     24 O         -9.299838   3.2531   7.619492 O.3        1 UNL1     -0.5068
     25 O         -5.404517   -2.417291   8.531411 O.2        1 UNL1     -0.2917
     26 O         -5.412037   -3.502904   6.063635 O.3        1 UNL1     -0.5058
     27 O         -0.153298   -0.06553   2.553848 O.3        1 UNL1     -0.3648
     28 O         0.403396   -1.956625   -0.468739 O.3        1 UNL1     -0.3841
     29 O         -2.48564   0.150273   -0.213201 O.3        1 UNL1     -0.3863
     30 O         -2.1852   -3.502622   0.044096 O.3        1 UNL1     -0.3829
     31 H         0.808867   -1.685244   1.899056 H        1 UNL1     0.0937
     32 H         0.0   0.0   0.0 H        1 UNL1     0.0671
     33 H         -1.800789   -1.415131   -1.292196 H        1 UNL1     0.0649
     34 H         -3.685245   -2.119991   0.267994 H        1 UNL1     0.0683
     35 H         -2.908461   -3.050283   2.399991 H        1 UNL1     0.1085
     36 H         -4.513316   -3.122112   3.706813 H        1 UNL1     0.0691
     37 H         -2.727927   0.720609   4.529053 H        1 UNL1     0.0691
     38 H         -3.083108   -0.77275   9.156833 H        1 UNL1     0.0385
     39 H         -4.659329   -0.438808   9.900171 H        1 UNL1     0.0385
     40 H         -3.596924   1.590897   8.841426 H        1 UNL1     0.0789
     41 H         -5.351832   1.878174   5.966909 H        1 UNL1     0.0623
     42 H         -7.572811   2.913661   5.727744 H        1 UNL1     0.0654
     43 H         -8.361753   2.210838   9.891036 H        1 UNL1     0.0654
     44 H         -6.190427   1.150566   10.150114 H        1 UNL1     0.0623
     45 H         -9.143002   4.173283   7.352318 H        1 UNL1     0.2921
     46 H         -4.961809   -3.94729   6.799317 H        1 UNL1     0.2922
     47 H         0.524781   0.534927   2.213963 H        1 UNL1     0.2126
     48 H         1.338156   -1.777926   -0.249599 H        1 UNL1     0.2101
     49 H         -2.113067   0.724658   -0.900998 H        1 UNL1     0.2100
     50 H         -2.443348   -3.590003   -0.896881 H        1 UNL1     0.2102
@<TRIPOS>BOND
     1     1     2    1
     2     1     6    1
     3     2     3    1
     4     3     4    1
     5     3    29    1
     6     3    33    1
     7     4     5    1
     8     5     6    1
     9     5     7    1
    10     5    35    1
    11     7     8    1
    12     8     9   ar
    13     8    13   ar
    14     9    10   ar
    15     9    36    1
    16    10    11   ar
    17    10    26    1
    18    11    12   ar
    19    11    14    1
    20    12    13   ar
    21    12    17    1
    22    13    37    1
    23    14    15    1
    24    14    25    2
    25    15    16    1
    26    15    38    1
    27    15    39    1
    28    16    17    1
    29    16    18    1
    30    16    40    1
    31    18    19   ar
    32    18    23   ar
    33    19    20   ar
    34    19    41    1
    35    20    21   ar
    36    20    42    1
    37    21    22   ar
    38    21    24    1
    39    22    23   ar
    40    22    43    1
    41    23    44    1
    42    24    45    1
    43    26    46    1
    44    27    47    1
    45    28    48    1
    46    29    49    1
    47    30    50    1
    48     1    31    1
    49     1    27    1
    50     2    32    1
    51     2    28    1
    52     4    34    1
    53     4    30    1
