@<TRIPOS>MOLECULE
*****
 50 53 0 0 0
SMALL
GASTEIGER

@<TRIPOS>ATOM
     1 C         0.324393   -1.211799   1.788048 C.3        1 UNL1     0.1889
     2 C         0.664152   -0.809358   0.327725 C.3        1 UNL1     0.1342
     3 C         0.591137   -1.959785   -0.687978 C.3        1 UNL1     0.1174
     4 C         1.032034   -3.301534   -0.097694 C.3        1 UNL1     0.1456
     5 C         0.400263   -3.576793   1.279064 C.3        1 UNL1     0.2326
     6 O         0.718225   -2.518544   2.180107 O.3        1 UNL1     -0.3076
     7 O         -1.008936   -3.862352   1.216329 O.3        1 UNL1     -0.4605
     8 C         -1.827326   -3.045885   1.976031 C.ar        1 UNL1     0.1310
     9 C         -3.115999   -3.37114   2.412876 C.ar        1 UNL1     0.0226
     10 C         -3.861352   -2.480747   3.194893 C.ar        1 UNL1     0.1343
     11 C         -3.326311   -1.252024   3.579358 C.ar        1 UNL1     0.1007
     12 C         -2.056454   -0.898924   3.115067 C.ar        1 UNL1     0.1389
     13 C         -1.308249   -1.793286   2.326563 C.ar        1 UNL1     0.0229
     14 C         -4.036545   -0.308893   4.473911 C.2        1 UNL1     0.1740
     15 C         -3.227574   0.856594   4.962537 C.3        1 UNL1     0.0520
     16 C         -2.369001   1.363346   3.811879 C.3        1 UNL1     0.1322
     17 O         -1.477455   0.327957   3.34264 O.3        1 UNL1     -0.4828
     18 C         -3.167463   2.061146   2.708133 C.ar        1 UNL1     -0.0067
     19 C         -4.094824   3.065559   3.053633 C.ar        1 UNL1     -0.0516
     20 C         -4.875347   3.690404   2.073677 C.ar        1 UNL1     -0.0198
     21 C         -4.743458   3.31545   0.748596 C.ar        1 UNL1     0.1169
     22 C         -3.81503   2.353209   0.373158 C.ar        1 UNL1     -0.0198
     23 C         -3.021268   1.741272   1.350671 C.ar        1 UNL1     -0.0516
     24 O         -5.54736   3.919275   -0.173107 O.3        1 UNL1     -0.5068
     25 O         -5.185353   -0.487667   4.869847 O.2        1 UNL1     -0.2917
     26 O         -5.11243   -2.858011   3.587397 O.3        1 UNL1     -0.5058
     27 O         -1.019449   -0.93858   2.151679 O.3        1 UNL1     -0.3648
     28 O         2.008741   -0.295689   0.297243 O.3        1 UNL1     -0.3841
     29 O         -0.701627   -2.019819   -1.294023 O.3        1 UNL1     -0.3863
     30 O         2.469478   -3.308377   0.041576 O.3        1 UNL1     -0.3829
     31 H         0.917619   -0.559658   2.438336 H        1 UNL1     0.0937
     32 H         0.0   0.0   -0.0 H        1 UNL1     0.0671
     33 H         1.286792   -1.728858   -1.506792 H        1 UNL1     0.0649
     34 H         0.772597   -4.115318   -0.783879 H        1 UNL1     0.0683
     35 H         0.926665   -4.470143   1.637818 H        1 UNL1     0.1085
     36 H         -3.566186   -4.333329   2.194603 H        1 UNL1     0.0691
     37 H         -0.322519   -1.494068   1.976852 H        1 UNL1     0.0691
     38 H         -2.606749   0.503882   5.793017 H        1 UNL1     0.0385
     39 H         -3.904439   1.628127   5.345117 H        1 UNL1     0.0385
     40 H         -1.702631   2.13497   4.220618 H        1 UNL1     0.0789
     41 H         -4.22363   3.371299   4.08784 H        1 UNL1     0.0623
     42 H         -5.595434   4.455135   2.354163 H        1 UNL1     0.0654
     43 H         -3.692909   2.062728   -0.66348 H        1 UNL1     0.0654
     44 H         -2.298764   1.001174   1.02039 H        1 UNL1     0.0623
     45 H         -6.205819   3.273174   -0.475929 H        1 UNL1     0.2921
     46 H         -5.317744   -3.731424   3.218061 H        1 UNL1     0.2922
     47 H         -1.22496   -0.005888   1.997694 H        1 UNL1     0.2126
     48 H         2.600851   -1.067056   0.207071 H        1 UNL1     0.2101
     49 H         -0.623391   -1.88725   -2.252198 H        1 UNL1     0.2100
     50 H         2.718796   -2.566883   0.631271 H        1 UNL1     0.2102
@<TRIPOS>BOND
     1     1     2    1
     2     1     6    1
     3     2     3    1
     4     3     4    1
     5     3    29    1
     6     3    33    1
     7     4     5    1
     8     5     6    1
     9     5     7    1
    10     5    35    1
    11     7     8    1
    12     8     9   ar
    13     8    13   ar
    14     9    10   ar
    15     9    36    1
    16    10    11   ar
    17    10    26    1
    18    11    12   ar
    19    11    14    1
    20    12    13   ar
    21    12    17    1
    22    13    37    1
    23    14    15    1
    24    14    25    2
    25    15    16    1
    26    15    38    1
    27    15    39    1
    28    16    17    1
    29    16    18    1
    30    16    40    1
    31    18    19   ar
    32    18    23   ar
    33    19    20   ar
    34    19    41    1
    35    20    21   ar
    36    20    42    1
    37    21    22   ar
    38    21    24    1
    39    22    23   ar
    40    22    43    1
    41    23    44    1
    42    24    45    1
    43    26    46    1
    44    27    47    1
    45    28    48    1
    46    29    49    1
    47    30    50    1
    48     1    31    1
    49     1    27    1
    50     2    32    1
    51     2    28    1
    52     4    34    1
    53     4    30    1
