@<TRIPOS>MOLECULE
*****
 50 53 0 0 0
SMALL
GASTEIGER

@<TRIPOS>ATOM
     1 C         1.020943   -1.768872   -0.77432 C.3        1 UNL1     0.1889
     2 C         0.02017   -0.591554   -0.923699 C.3        1 UNL1     0.1342
     3 C         -1.413936   -1.010512   -1.281859 C.3        1 UNL1     0.1174
     4 C         -1.462859   -2.232492   -2.20245 C.3        1 UNL1     0.1456
     5 C         -0.527716   -3.362248   -1.733916 C.3        1 UNL1     0.2326
     6 O         0.80951   -2.877302   -1.636338 O.3        1 UNL1     -0.3076
     7 O         -0.979551   -4.020897   -0.536691 O.3        1 UNL1     -0.4605
     8 C         -2.134814   -3.51692   0.03331 C.ar        1 UNL1     0.1310
     9 C         -3.074111   -4.261697   0.75465 C.ar        1 UNL1     0.0226
     10 C         -4.207275   -3.654894   1.309296 C.ar        1 UNL1     0.1343
     11 C         -4.416619   -2.282925   1.176191 C.ar        1 UNL1     0.1007
     12 C         -3.506892   -1.535823   0.423184 C.ar        1 UNL1     0.1389
     13 C         -2.368958   -2.146662   -0.136651 C.ar        1 UNL1     0.0229
     14 C         -5.552252   -1.576112   1.812513 C.2        1 UNL1     0.1740
     15 C         -5.499896   -0.077692   1.752957 C.3        1 UNL1     0.0520
     16 C         -4.993092   0.33238   0.377113 C.3        1 UNL1     0.1322
     17 O         -3.671753   -0.200329   0.137627 O.3        1 UNL1     -0.4828
     18 C         -5.995119   0.07432   -0.750749 C.ar        1 UNL1     -0.0067
     19 C         -6.868677   1.106409   -1.150629 C.ar        1 UNL1     -0.0516
     20 C         -7.828856   0.889393   -2.14608 C.ar        1 UNL1     -0.0198
     21 C         -7.930217   -0.354585   -2.742797 C.ar        1 UNL1     0.1169
     22 C         -7.062063   -1.380996   -2.394048 C.ar        1 UNL1     -0.0198
     23 C         -6.089626   -1.158823   -1.411673 C.ar        1 UNL1     -0.0516
     24 O         -8.902312   -0.539651   -3.681511 O.3        1 UNL1     -0.5068
     25 O         -6.44851   -2.150614   2.425011 O.2        1 UNL1     -0.2917
     26 O         -5.085478   -4.437623   2.00044 O.3        1 UNL1     -0.5058
     27 O         1.213654   -2.17998   0.569793 O.3        1 UNL1     -0.3648
     28 O         0.488381   0.274605   -1.974057 O.3        1 UNL1     -0.3841
     29 O         -2.203898   -1.174226   -0.102329 O.3        1 UNL1     -0.3863
     30 O         -1.079093   -1.835864   -3.537028 O.3        1 UNL1     -0.3829
     31 H         2.000569   -1.387777   -1.082831 H        1 UNL1     0.0937
     32 H         -0.0   0.0   0.0 H        1 UNL1     0.0671
     33 H         -1.878635   -0.1799   -1.831277 H        1 UNL1     0.0649
     34 H         -2.488182   -2.613752   -2.263728 H        1 UNL1     0.0683
     35 H         -0.546447   -4.081703   -2.562114 H        1 UNL1     0.1085
     36 H         -2.939936   -5.321608   0.940944 H        1 UNL1     0.0691
     37 H         -1.676457   -1.543148   -0.719494 H        1 UNL1     0.0691
     38 H         -4.819846   0.261536   2.541616 H        1 UNL1     0.0385
     39 H         -6.496435   0.324954   1.964061 H        1 UNL1     0.0385
     40 H         -4.850819   1.421382   0.395896 H        1 UNL1     0.0789
     41 H         -6.815317   2.089091   -0.691131 H        1 UNL1     0.0623
     42 H         -8.504583   1.689766   -2.437298 H        1 UNL1     0.0654
     43 H         -7.122808   -2.354566   -2.865624 H        1 UNL1     0.0654
     44 H         -5.421147   -1.979984   -1.171518 H        1 UNL1     0.0623
     45 H         -9.748376   -0.673969   -3.224507 H        1 UNL1     0.2921
     46 H         -5.690217   -3.874262   2.508699 H        1 UNL1     0.2922
     47 H         0.588233   -1.726018   1.15171 H        1 UNL1     0.2126
     48 H         1.450828   0.377043   -1.843921 H        1 UNL1     0.2101
     49 H         -2.277851   -0.327208   0.365524 H        1 UNL1     0.2100
     50 H         -1.018635   -0.858254   -3.555374 H        1 UNL1     0.2102
@<TRIPOS>BOND
     1     1     2    1
     2     1     6    1
     3     2     3    1
     4     3     4    1
     5     3    29    1
     6     3    33    1
     7     4     5    1
     8     5     6    1
     9     5     7    1
    10     5    35    1
    11     7     8    1
    12     8     9   ar
    13     8    13   ar
    14     9    10   ar
    15     9    36    1
    16    10    11   ar
    17    10    26    1
    18    11    12   ar
    19    11    14    1
    20    12    13   ar
    21    12    17    1
    22    13    37    1
    23    14    15    1
    24    14    25    2
    25    15    16    1
    26    15    38    1
    27    15    39    1
    28    16    17    1
    29    16    18    1
    30    16    40    1
    31    18    19   ar
    32    18    23   ar
    33    19    20   ar
    34    19    41    1
    35    20    21   ar
    36    20    42    1
    37    21    22   ar
    38    21    24    1
    39    22    23   ar
    40    22    43    1
    41    23    44    1
    42    24    45    1
    43    26    46    1
    44    27    47    1
    45    28    48    1
    46    29    49    1
    47    30    50    1
    48     1    31    1
    49     1    27    1
    50     2    32    1
    51     2    28    1
    52     4    34    1
    53     4    30    1
