@<TRIPOS>MOLECULE
*****
 50 53 0 0 0
SMALL
GASTEIGER

@<TRIPOS>ATOM
     1 C         -0.358208   -1.361665   1.669838 C.3        1 UNL1     0.1889
     2 C         -0.443267   -0.989871   0.165021 C.3        1 UNL1     0.1342
     3 C         -1.863643   -1.006786   -0.420394 C.3        1 UNL1     0.1174
     4 C         -2.744947   -2.098388   0.191836 C.3        1 UNL1     0.1456
     5 C         -2.648371   -2.142571   1.727767 C.3        1 UNL1     0.2326
     6 O         -1.291765   -2.330343   2.124292 O.3        1 UNL1     -0.3076
     7 O         -3.276724   -1.020652   2.374135 O.3        1 UNL1     -0.4605
     8 C         -3.826016   -1.268051   3.619366 C.ar        1 UNL1     0.1310
     9 C         -4.626523   -2.367352   3.948038 C.ar        1 UNL1     0.0226
     10 C         -5.122898   -2.538968   5.245752 C.ar        1 UNL1     0.1343
     11 C         -4.810815   -1.627054   6.253154 C.ar        1 UNL1     0.1007
     12 C         -4.04627   -0.503637   5.927288 C.ar        1 UNL1     0.1389
     13 C         -3.549481   -0.329918   4.621741 C.ar        1 UNL1     0.0229
     14 C         -5.238678   -1.803812   7.660223 C.2        1 UNL1     0.1740
     15 C         -4.629995   -0.852637   8.648312 C.3        1 UNL1     0.0520
     16 C         -4.573527   0.530245   8.013957 C.3        1 UNL1     0.1322
     17 O         -3.769821   0.511365   6.813636 O.3        1 UNL1     -0.4828
     18 C         -5.945284   1.188777   7.848599 C.ar        1 UNL1     -0.0067
     19 C         -6.294298   1.759751   6.607474 C.ar        1 UNL1     -0.0516
     20 C         -7.521536   2.411312   6.436253 C.ar        1 UNL1     -0.0198
     21 C         -8.403327   2.504832   7.498104 C.ar        1 UNL1     0.1169
     22 C         -8.102278   1.923417   8.722916 C.ar        1 UNL1     -0.0198
     23 C         -6.882986   1.255756   8.88909 C.ar        1 UNL1     -0.0516
     24 O         -9.572733   3.179722   7.304678 O.3        1 UNL1     -0.5068
     25 O         -5.978188   -2.710734   8.033187 O.2        1 UNL1     -0.2917
     26 O         -5.898809   -3.631928   5.500672 O.3        1 UNL1     -0.5058
     27 O         -0.313598   -0.233721   2.529222 O.3        1 UNL1     -0.3648
     28 O         0.340073   -1.937573   -0.583941 O.3        1 UNL1     -0.3841
     29 O         -2.458038   0.290656   -0.346427 O.3        1 UNL1     -0.3863
     30 O         -2.344391   -3.381819   -0.335468 O.3        1 UNL1     -0.3829
     31 H         0.610741   -1.851159   1.816846 H        1 UNL1     0.0937
     32 H         0.0   0.0   0.0 H        1 UNL1     0.0671
     33 H         -1.781459   -1.229318   -1.493448 H        1 UNL1     0.0649
     34 H         -3.789424   -1.943545   -0.100555 H        1 UNL1     0.0683
     35 H         -3.18992   -3.056973   2.000665 H        1 UNL1     0.1085
     36 H         -4.858621   -3.140542   3.223864 H        1 UNL1     0.0691
     37 H         -2.957541   0.553808   4.393424 H        1 UNL1     0.0691
     38 H         -3.625745   -1.219532   8.885794 H        1 UNL1     0.0385
     39 H         -5.224093   -0.862119   9.568494 H        1 UNL1     0.0385
     40 H         -4.020209   1.180864   8.704648 H        1 UNL1     0.0789
     41 H         -5.615596   1.707747   5.761123 H        1 UNL1     0.0623
     42 H         -7.774051   2.857939   5.477727 H        1 UNL1     0.0654
     43 H         -8.791995   1.97768   9.556737 H        1 UNL1     0.0654
     44 H         -6.685148   0.804072   9.856399 H        1 UNL1     0.0623
     45 H         -9.361632   4.096429   7.064261 H        1 UNL1     0.2921
     46 H         -5.506958   -4.145044   6.224949 H        1 UNL1     0.2922
     47 H         0.42416   0.343085   2.286597 H        1 UNL1     0.2126
     48 H         1.259989   -1.852262   -0.267382 H        1 UNL1     0.2101
     49 H         -2.011748   0.893693   -0.962029 H        1 UNL1     0.2100
     50 H         -2.542514   -3.388759   -1.294849 H        1 UNL1     0.2102
@<TRIPOS>BOND
     1     1     2    1
     2     1     6    1
     3     2     3    1
     4     3     4    1
     5     3    29    1
     6     3    33    1
     7     4     5    1
     8     5     6    1
     9     5     7    1
    10     5    35    1
    11     7     8    1
    12     8     9   ar
    13     8    13   ar
    14     9    10   ar
    15     9    36    1
    16    10    11   ar
    17    10    26    1
    18    11    12   ar
    19    11    14    1
    20    12    13   ar
    21    12    17    1
    22    13    37    1
    23    14    15    1
    24    14    25    2
    25    15    16    1
    26    15    38    1
    27    15    39    1
    28    16    17    1
    29    16    18    1
    30    16    40    1
    31    18    19   ar
    32    18    23   ar
    33    19    20   ar
    34    19    41    1
    35    20    21   ar
    36    20    42    1
    37    21    22   ar
    38    21    24    1
    39    22    23   ar
    40    22    43    1
    41    23    44    1
    42    24    45    1
    43    26    46    1
    44    27    47    1
    45    28    48    1
    46    29    49    1
    47    30    50    1
    48     1    31    1
    49     1    27    1
    50     2    32    1
    51     2    28    1
    52     4    34    1
    53     4    30    1
