@<TRIPOS>MOLECULE
*****
 50 53 0 0 0
SMALL
GASTEIGER

@<TRIPOS>ATOM
     1 C         2.145121   0.10044   -0.398966 C.3        1 UNL1     0.1889
     2 C         0.676277   -0.105145   -0.857412 C.3        1 UNL1     0.1342
     3 C         0.402699   -1.44924   -1.549532 C.3        1 UNL1     0.1174
     4 C         1.585718   -1.935389   -2.390509 C.3        1 UNL1     0.1456
     5 C         2.927002   -1.8228   -1.643083 C.3        1 UNL1     0.2326
     6 O         3.14194   -0.475017   -1.230588 O.3        1 UNL1     -0.3076
     7 O         3.066878   -2.772023   -0.570362 O.3        1 UNL1     -0.4605
     8 C         2.807815   -4.09234   -0.891576 C.ar        1 UNL1     0.1310
     9 C         3.586998   -4.888269   -1.73814 C.ar        1 UNL1     0.0226
     10 C         3.250156   -6.223838   -1.988535 C.ar        1 UNL1     0.1343
     11 C         2.138169   -6.80334   -1.379024 C.ar        1 UNL1     0.1007
     12 C         1.329229   -6.006979   -0.564035 C.ar        1 UNL1     0.1389
     13 C         1.66665   -4.663358   -0.314514 C.ar        1 UNL1     0.0229
     14 C         1.783861   -8.232347   -1.541994 C.2        1 UNL1     0.1740
     15 C         0.694057   -8.737703   -0.642834 C.3        1 UNL1     0.0520
     16 C         -0.385476   -7.668476   -0.546304 C.3        1 UNL1     0.1322
     17 O         0.152916   -6.44401   -0.000512 O.3        1 UNL1     -0.4828
     18 C         -1.191142   -7.48818   -1.835149 C.ar        1 UNL1     -0.0067
     19 C         -0.776752   -8.150045   -3.009214 C.ar        1 UNL1     -0.0516
     20 C         -1.463137   -7.969475   -4.215959 C.ar        1 UNL1     -0.0198
     21 C         -2.558517   -7.125834   -4.263278 C.ar        1 UNL1     0.1169
     22 C         -3.010812   -6.486269   -3.116446 C.ar        1 UNL1     -0.0198
     23 C         -2.335713   -6.681086   -1.90552 C.ar        1 UNL1     -0.0516
     24 O         -3.178941   -6.945118   -5.464451 O.3        1 UNL1     -0.5068
     25 O         2.380572   -8.994968   -2.297527 O.2        1 UNL1     -0.2917
     26 O         4.051021   -6.94555   -2.824796 O.3        1 UNL1     -0.5058
     27 O         2.359564   -0.211622   0.968301 O.3        1 UNL1     -0.3648
     28 O         0.341046   0.935235   -1.794394 O.3        1 UNL1     -0.3841
     29 O         -0.04268   -2.424617   -0.604858 O.3        1 UNL1     -0.3863
     30 O         1.661277   -1.150321   -3.600323 O.3        1 UNL1     -0.3829
     31 H         2.345876   1.175347   -0.464917 H        1 UNL1     0.0937
     32 H         0.0   0.0   0.0 H        1 UNL1     0.0671
     33 H         -0.440197   -1.305507   -2.239885 H        1 UNL1     0.0649
     34 H         1.426666   -2.976278   -2.693252 H        1 UNL1     0.0683
     35 H         3.677693   -2.044618   -2.411938 H        1 UNL1     0.1085
     36 H         4.494672   -4.512958   -2.197912 H        1 UNL1     0.0691
     37 H         1.019795   -4.064305   0.322829 H        1 UNL1     0.0691
     38 H         1.139799   -8.938524   0.337223 H        1 UNL1     0.0385
     39 H         0.307567   -9.681389   -1.042662 H        1 UNL1     0.0385
     40 H         -1.111249   -8.008145   0.204961 H        1 UNL1     0.0789
     41 H         0.085539   -8.810366   -3.000263 H        1 UNL1     0.0623
     42 H         -1.126649   -8.476134   -5.117116 H        1 UNL1     0.0654
     43 H         -3.876574   -5.835225   -3.139012 H        1 UNL1     0.0654
     44 H         -2.722969   -6.173975   -1.027047 H        1 UNL1     0.0623
     45 H         -2.517526   -6.646246   -6.109373 H        1 UNL1     0.2921
     46 H         3.74567   -7.866152   -2.850554 H        1 UNL1     0.2922
     47 H         1.693321   0.222433   1.519278 H        1 UNL1     0.2126
     48 H         0.930611   1.688724   -1.598437 H        1 UNL1     0.2101
     49 H         -0.992273   -2.313356   -0.438461 H        1 UNL1     0.2100
     50 H         2.391479   -0.505583   -3.496255 H        1 UNL1     0.2102
@<TRIPOS>BOND
     1     1     2    1
     2     1     6    1
     3     2     3    1
     4     3     4    1
     5     3    29    1
     6     3    33    1
     7     4     5    1
     8     5     6    1
     9     5     7    1
    10     5    35    1
    11     7     8    1
    12     8     9   ar
    13     8    13   ar
    14     9    10   ar
    15     9    36    1
    16    10    11   ar
    17    10    26    1
    18    11    12   ar
    19    11    14    1
    20    12    13   ar
    21    12    17    1
    22    13    37    1
    23    14    15    1
    24    14    25    2
    25    15    16    1
    26    15    38    1
    27    15    39    1
    28    16    17    1
    29    16    18    1
    30    16    40    1
    31    18    19   ar
    32    18    23   ar
    33    19    20   ar
    34    19    41    1
    35    20    21   ar
    36    20    42    1
    37    21    22   ar
    38    21    24    1
    39    22    23   ar
    40    22    43    1
    41    23    44    1
    42    24    45    1
    43    26    46    1
    44    27    47    1
    45    28    48    1
    46    29    49    1
    47    30    50    1
    48     1    31    1
    49     1    27    1
    50     2    32    1
    51     2    28    1
    52     4    34    1
    53     4    30    1
