@<TRIPOS>MOLECULE
*****
 50 53 0 0 0
SMALL
GASTEIGER

@<TRIPOS>ATOM
     1 C         1.742925   -0.990792   0.866803 C.3        1 UNL1     0.1889
     2 C         0.212562   -0.746878   0.774953 C.3        1 UNL1     0.1342
     3 C         -0.446509   -0.305326   2.090674 C.3        1 UNL1     0.1174
     4 C         0.194989   -0.95062   3.321606 C.3        1 UNL1     0.1456
     5 C         1.733015   -0.891403   3.285075 C.3        1 UNL1     0.2326
     6 O         2.215473   -1.516967   2.098158 O.3        1 UNL1     -0.3076
     7 O         2.260469   0.43325   3.481055 O.3        1 UNL1     -0.4605
     8 C         2.880888   1.006885   2.385814 C.ar        1 UNL1     0.1310
     9 C         2.857409   2.36767   2.061755 C.ar        1 UNL1     0.0226
     10 C         3.533274   2.85556   0.937001 C.ar        1 UNL1     0.1343
     11 C         4.269454   1.997116   0.121553 C.ar        1 UNL1     0.1007
     12 C         4.266605   0.630148   0.411681 C.ar        1 UNL1     0.1389
     13 C         3.584771   0.139449   1.541171 C.ar        1 UNL1     0.0229
     14 C         5.070712   2.470885   -1.030698 C.2        1 UNL1     0.1740
     15 C         5.973468   1.449348   -1.657628 C.3        1 UNL1     0.0520
     16 C         5.232922   0.120189   -1.711353 C.3        1 UNL1     0.1322
     17 O         4.867847   -0.317434   -0.383845 O.3        1 UNL1     -0.4828
     18 C         4.086853   0.093929   -2.725533 C.ar        1 UNL1     -0.0067
     19 C         4.379184   -0.051007   -4.097302 C.ar        1 UNL1     -0.0516
     20 C         3.358441   -0.031444   -5.05525 C.ar        1 UNL1     -0.0198
     21 C         2.04503   0.139363   -4.655745 C.ar        1 UNL1     0.1169
     22 C         1.722335   0.251144   -3.30956 C.ar        1 UNL1     -0.0198
     23 C         2.741065   0.213112   -2.349977 C.ar        1 UNL1     -0.0516
     24 O         1.081705   0.191265   -5.61996 O.3        1 UNL1     -0.5068
     25 O         5.075684   3.636729   -1.417052 O.2        1 UNL1     -0.2917
     26 O         3.469839   4.193224   0.675818 O.3        1 UNL1     -0.5058
     27 O         2.518706   0.117156   0.438551 O.3        1 UNL1     -0.3648
     28 O         -0.421358   -1.974105   0.369042 O.3        1 UNL1     -0.3841
     29 O         -0.500054   1.120056   2.177583 O.3        1 UNL1     -0.3863
     30 O         -0.214492   -2.333367   3.399235 O.3        1 UNL1     -0.3829
     31 H         1.977855   -1.779896   0.144168 H        1 UNL1     0.0937
     32 H         0.0   0.0   0.0 H        1 UNL1     0.0671
     33 H         -1.494354   -0.635838   2.06829 H        1 UNL1     0.0649
     34 H         -0.164367   -0.458304   4.232039 H        1 UNL1     0.0683
     35 H         2.042137   -1.523459   4.126995 H        1 UNL1     0.1085
     36 H         2.349619   3.094004   2.686821 H        1 UNL1     0.0691
     37 H         3.597083   -0.929191   1.744521 H        1 UNL1     0.0691
     38 H         6.872318   1.375831   -1.036186 H        1 UNL1     0.0385
     39 H         6.272792   1.797052   -2.652256 H        1 UNL1     0.0385
     40 H         5.948874   -0.635306   -2.062293 H        1 UNL1     0.0789
     41 H         5.402986   -0.177275   -4.437206 H        1 UNL1     0.0623
     42 H         3.59781   -0.132269   -6.110972 H        1 UNL1     0.0654
     43 H         0.695626   0.370212   -2.984595 H        1 UNL1     0.0654
     44 H         2.451763   0.292759   -1.306519 H        1 UNL1     0.0623
     45 H         0.357634   0.753536   -5.300132 H        1 UNL1     0.2921
     46 H         4.364645   4.535777   0.522875 H        1 UNL1     0.2922
     47 H         3.258213   -0.183194   -0.108057 H        1 UNL1     0.2126
     48 H         -0.793536   -2.377192   1.176963 H        1 UNL1     0.2101
     49 H         0.36286   1.497582   1.943818 H        1 UNL1     0.2100
     50 H         0.018714   -2.667313   4.290194 H        1 UNL1     0.2102
@<TRIPOS>BOND
     1     1     2    1
     2     1     6    1
     3     2     3    1
     4     3     4    1
     5     3    29    1
     6     3    33    1
     7     4     5    1
     8     5     6    1
     9     5     7    1
    10     5    35    1
    11     7     8    1
    12     8     9   ar
    13     8    13   ar
    14     9    10   ar
    15     9    36    1
    16    10    11   ar
    17    10    26    1
    18    11    12   ar
    19    11    14    1
    20    12    13   ar
    21    12    17    1
    22    13    37    1
    23    14    15    1
    24    14    25    2
    25    15    16    1
    26    15    38    1
    27    15    39    1
    28    16    17    1
    29    16    18    1
    30    16    40    1
    31    18    19   ar
    32    18    23   ar
    33    19    20   ar
    34    19    41    1
    35    20    21   ar
    36    20    42    1
    37    21    22   ar
    38    21    24    1
    39    22    23   ar
    40    22    43    1
    41    23    44    1
    42    24    45    1
    43    26    46    1
    44    27    47    1
    45    28    48    1
    46    29    49    1
    47    30    50    1
    48     1    31    1
    49     1    27    1
    50     2    32    1
    51     2    28    1
    52     4    34    1
    53     4    30    1
