@<TRIPOS>MOLECULE
*****
 50 53 0 0 0
SMALL
GASTEIGER

@<TRIPOS>ATOM
     1 C         0.004717   -1.099177   1.887483 C.3        1 UNL1     0.1889
     2 C         -0.259933   -1.00289   0.360843 C.3        1 UNL1     0.1342
     3 C         -1.700272   -1.329933   -0.06216 C.3        1 UNL1     0.1174
     4 C         -2.338514   -2.422065   0.799822 C.3        1 UNL1     0.1456
     5 C         -2.113917   -2.192184   2.305503 C.3        1 UNL1     0.2326
     6 O         -0.717678   -2.105892   2.581072 O.3        1 UNL1     -0.3076
     7 O         -2.864627   -1.084032   2.834423 O.3        1 UNL1     -0.4605
     8 C         -3.264785   -1.197498   4.153714 C.ar        1 UNL1     0.1310
     9 C         -3.844917   -2.332797   4.729772 C.ar        1 UNL1     0.0226
     10 C         -4.201326   -2.355689   6.083416 C.ar        1 UNL1     0.1343
     11 C         -3.964135   -1.251007   6.900275 C.ar        1 UNL1     0.1007
     12 C         -3.4231   -0.097107   6.327057 C.ar        1 UNL1     0.1389
     13 C         -3.067254   -0.073422   4.965351 C.ar        1 UNL1     0.0229
     14 C         -4.243625   -1.250278   8.354936 C.2        1 UNL1     0.1740
     15 C         -3.722818   -0.066316   9.115557 C.3        1 UNL1     0.0520
     16 C         -3.945178   1.182775   8.273961 C.3        1 UNL1     0.1322
     17 O         -3.247535   1.082326   7.0129 O.3        1 UNL1     -0.4828
     18 C         -5.415283   1.591823   8.154809 C.ar        1 UNL1     -0.0067
     19 C         -5.951179   1.887163   6.884453 C.ar        1 UNL1     -0.0516
     20 C         -7.278519   2.310004   6.745393 C.ar        1 UNL1     -0.0198
     21 C         -8.076236   2.448218   7.867165 C.ar        1 UNL1     0.1169
     22 C         -7.587081   2.132798   9.128147 C.ar        1 UNL1     -0.0198
     23 C         -6.26531   1.692235   9.265559 C.ar        1 UNL1     -0.0516
     24 O         -9.35232   2.898686   7.696616 O.3        1 UNL1     -0.5068
     25 O         -4.791884   -2.181568   8.938541 O.2        1 UNL1     -0.2917
     26 O         -4.764196   -3.493551   6.583448 O.3        1 UNL1     -0.5058
     27 O         -0.068371   0.151156   2.553901 O.3        1 UNL1     -0.3648
     28 O         0.60634   -1.935423   -0.311956 O.3        1 UNL1     -0.3841
     29 O         -2.492058   -0.142032   -0.126161 O.3        1 UNL1     -0.3863
     30 O         -1.775731   -3.701554   0.436677 O.3        1 UNL1     -0.3829
     31 H         1.049543   -1.406738   2.005062 H        1 UNL1     0.0937
     32 H         0.0   0.0   0.0 H        1 UNL1     0.0671
     33 H         -1.66839   -1.715102   -1.090921 H        1 UNL1     0.0649
     34 H         -3.414167   -2.476322   0.598755 H        1 UNL1     0.0683
     35 H         -2.47429   -3.118053   2.771095 H        1 UNL1     0.1085
     36 H         -4.003707   -3.2427   4.161457 H        1 UNL1     0.0691
     37 H         -2.648744   0.837585   4.542965 H        1 UNL1     0.0691
     38 H         -2.656232   -0.233923   9.29948 H        1 UNL1     0.0385
     39 H         -4.23204   -0.009362   10.083662 H        1 UNL1     0.0385
     40 H         -3.453093   2.015566   8.794376 H        1 UNL1     0.0789
     41 H         -5.342787   1.795356   5.989422 H        1 UNL1     0.0623
     42 H         -7.67658   2.546156   5.76163 H        1 UNL1     0.0654
     43 H         -8.207673   2.223054   10.01168 H        1 UNL1     0.0654
     44 H         -5.919474   1.444472   10.264486 H        1 UNL1     0.0623
     45 H         -9.314626   3.782941   7.29738 H        1 UNL1     0.2921
     46 H         -4.236926   -3.813066   7.332653 H        1 UNL1     0.2922
     47 H         0.542819   0.78247   2.14924 H        1 UNL1     0.2126
     48 H         1.521975   -1.661696   -0.110909 H        1 UNL1     0.2101
     49 H         -2.201463   0.408554   -0.87061 H        1 UNL1     0.2100
     50 H         -2.045822   -3.899367   -0.483993 H        1 UNL1     0.2102
@<TRIPOS>BOND
     1     1     2    1
     2     1     6    1
     3     2     3    1
     4     3     4    1
     5     3    29    1
     6     3    33    1
     7     4     5    1
     8     5     6    1
     9     5     7    1
    10     5    35    1
    11     7     8    1
    12     8     9   ar
    13     8    13   ar
    14     9    10   ar
    15     9    36    1
    16    10    11   ar
    17    10    26    1
    18    11    12   ar
    19    11    14    1
    20    12    13   ar
    21    12    17    1
    22    13    37    1
    23    14    15    1
    24    14    25    2
    25    15    16    1
    26    15    38    1
    27    15    39    1
    28    16    17    1
    29    16    18    1
    30    16    40    1
    31    18    19   ar
    32    18    23   ar
    33    19    20   ar
    34    19    41    1
    35    20    21   ar
    36    20    42    1
    37    21    22   ar
    38    21    24    1
    39    22    23   ar
    40    22    43    1
    41    23    44    1
    42    24    45    1
    43    26    46    1
    44    27    47    1
    45    28    48    1
    46    29    49    1
    47    30    50    1
    48     1    31    1
    49     1    27    1
    50     2    32    1
    51     2    28    1
    52     4    34    1
    53     4    30    1
