@<TRIPOS>MOLECULE
*****
 50 53 0 0 0
SMALL
GASTEIGER

@<TRIPOS>ATOM
     1 C         -0.32069   -1.322616   1.708406 C.3        1 UNL1     0.1889
     2 C         -0.456513   -0.977106   0.201052 C.3        1 UNL1     0.1342
     3 C         -1.898584   -0.975034   -0.328941 C.3        1 UNL1     0.1174
     4 C         -2.777425   -2.036328   0.337699 C.3        1 UNL1     0.1456
     5 C         -2.622245   -2.054021   1.869355 C.3        1 UNL1     0.2326
     6 O         -1.255363   -2.262865   2.217043 O.3        1 UNL1     -0.3076
     7 O         -3.202166   -0.907346   2.517544 O.3        1 UNL1     -0.4605
     8 C         -3.707634   -1.119997   3.787508 C.ar        1 UNL1     0.1310
     9 C         -4.516914   -2.195948   4.167898 C.ar        1 UNL1     0.0226
     10 C         -4.965943   -2.332985   5.486798 C.ar        1 UNL1     0.1343
     11 C         -4.59658   -1.409292   6.463631 C.ar        1 UNL1     0.1007
     12 C         -3.82263   -0.308428   6.086959 C.ar        1 UNL1     0.1389
     13 C         -3.373448   -0.169443   4.760177 C.ar        1 UNL1     0.0229
     14 C         -4.973024   -1.550879   7.889252 C.2        1 UNL1     0.1740
     15 C         -4.307298   -0.594532   8.83464 C.3        1 UNL1     0.0520
     16 C         -4.247453   0.774848   8.171938 C.3        1 UNL1     0.1322
     17 O         -3.491473   0.716815   6.942224 O.3        1 UNL1     -0.4828
     18 C         -5.610956   1.458876   8.046673 C.ar        1 UNL1     -0.0067
     19 C         -5.996211   2.013927   6.80905 C.ar        1 UNL1     -0.0516
     20 C         -7.215703   2.68784   6.672513 C.ar        1 UNL1     -0.0198
     21 C         -8.053553   2.819556   7.765438 C.ar        1 UNL1     0.1169
     22 C         -7.717062   2.254773   8.988808 C.ar        1 UNL1     -0.0198
     23 C         -6.506031   1.56484   9.12092 C.ar        1 UNL1     -0.0516
     24 O         -9.215656   3.515162   7.604044 O.3        1 UNL1     -0.5068
     25 O         -5.715746   -2.434986   8.307827 O.2        1 UNL1     -0.2917
     26 O         -5.753384   -3.404482   5.792437 O.3        1 UNL1     -0.5058
     27 O         -0.219905   -0.180105   2.54345 O.3        1 UNL1     -0.3648
     28 O         0.277798   -1.954793   -0.558961 O.3        1 UNL1     -0.3841
     29 O         -2.463228   0.33576   -0.257325 O.3        1 UNL1     -0.3863
     30 O         -2.42374   -3.337456   -0.179661 O.3        1 UNL1     -0.3829
     31 H         0.643108   -1.829549   1.827536 H        1 UNL1     0.0937
     32 H         0.0   0.0   0.0 H        1 UNL1     0.0671
     33 H         -1.862625   -1.219119   -1.399851 H        1 UNL1     0.0649
     34 H         -3.829106   -1.865027   0.082698 H        1 UNL1     0.0683
     35 H         -3.17123   -2.95162   2.180498 H        1 UNL1     0.1085
     36 H         -4.792566   -2.977396   3.468273 H        1 UNL1     0.0691
     37 H         -2.773013   0.697262   4.492232 H        1 UNL1     0.0691
     38 H         -3.302238   -0.977976   9.040432 H        1 UNL1     0.0385
     39 H         -4.865317   -0.574451   9.776972 H        1 UNL1     0.0385
     40 H         -3.654674   1.426404   8.828145 H        1 UNL1     0.0789
     41 H         -5.352053   1.931977   5.938421 H        1 UNL1     0.0623
     42 H         -7.496109   3.12181   5.715928 H        1 UNL1     0.0654
     43 H         -8.372665   2.33898   9.847297 H        1 UNL1     0.0654
     44 H         -6.280012   1.127127   10.088477 H        1 UNL1     0.0623
     45 H         -8.995496   4.422612   7.337998 H        1 UNL1     0.2921
     46 H         -5.344342   -3.912043   6.511101 H        1 UNL1     0.2922
     47 H         0.519429   0.376471   2.26155 H        1 UNL1     0.2126
     48 H         1.210844   -1.88297   -0.279678 H        1 UNL1     0.2101
     49 H         -2.029081   0.917736   -0.90123 H        1 UNL1     0.2100
     50 H         -2.659037   -3.358035   -1.13041 H        1 UNL1     0.2102
@<TRIPOS>BOND
     1     1     2    1
     2     1     6    1
     3     2     3    1
     4     3     4    1
     5     3    29    1
     6     3    33    1
     7     4     5    1
     8     5     6    1
     9     5     7    1
    10     5    35    1
    11     7     8    1
    12     8     9   ar
    13     8    13   ar
    14     9    10   ar
    15     9    36    1
    16    10    11   ar
    17    10    26    1
    18    11    12   ar
    19    11    14    1
    20    12    13   ar
    21    12    17    1
    22    13    37    1
    23    14    15    1
    24    14    25    2
    25    15    16    1
    26    15    38    1
    27    15    39    1
    28    16    17    1
    29    16    18    1
    30    16    40    1
    31    18    19   ar
    32    18    23   ar
    33    19    20   ar
    34    19    41    1
    35    20    21   ar
    36    20    42    1
    37    21    22   ar
    38    21    24    1
    39    22    23   ar
    40    22    43    1
    41    23    44    1
    42    24    45    1
    43    26    46    1
    44    27    47    1
    45    28    48    1
    46    29    49    1
    47    30    50    1
    48     1    31    1
    49     1    27    1
    50     2    32    1
    51     2    28    1
    52     4    34    1
    53     4    30    1
