@<TRIPOS>MOLECULE
*****
 50 53 0 0 0
SMALL
GASTEIGER

@<TRIPOS>ATOM
     1 C         -0.393598   -1.401109   1.628735 C.3        1 UNL1     0.1889
     2 C         -0.427786   -1.001969   0.128916 C.3        1 UNL1     0.1342
     3 C         -1.823475   -1.037261   -0.512388 C.3        1 UNL1     0.1174
     4 C         -2.704142   -2.158804   0.044104 C.3        1 UNL1     0.1456
     5 C         -2.666779   -2.230831   1.581563 C.3        1 UNL1     0.2326
     6 O         -1.322964   -2.397804   2.027826 O.3        1 UNL1     -0.3076
     7 O         -3.344143   -1.135121   2.22337 O.3        1 UNL1     -0.4605
     8 C         -3.936622   -1.418281   3.440875 C.ar        1 UNL1     0.1310
     9 C         -4.725587   -2.540224   3.716697 C.ar        1 UNL1     0.0226
     10 C         -5.268905   -2.747563   4.990165 C.ar        1 UNL1     0.1343
     11 C         -5.016485   -1.849312   6.026152 C.ar        1 UNL1     0.1007
     12 C         -4.264075   -0.704066   5.752155 C.ar        1 UNL1     0.1389
     13 C         -3.720081   -0.494462   4.470918 C.ar        1 UNL1     0.0229
     14 C         -5.495557   -2.062514   7.4115 C.2        1 UNL1     0.1740
     15 C         -4.946921   -1.118475   8.440741 C.3        1 UNL1     0.0520
     16 C         -4.895307   0.277469   7.835238 C.3        1 UNL1     0.1322
     17 O         -4.044703   0.298867   6.667725 O.3        1 UNL1     -0.4828
     18 C         -6.273352   0.910466   7.6278 C.ar        1 UNL1     -0.0067
     19 C         -6.584407   1.500795   6.385636 C.ar        1 UNL1     -0.0516
     20 C         -7.817697   2.129989   6.178094 C.ar        1 UNL1     -0.0198
     21 C         -8.743452   2.181881   7.204794 C.ar        1 UNL1     0.1169
     22 C         -8.479425   1.580462   8.428486 C.ar        1 UNL1     -0.0198
     23 C         -7.253518   0.935119   8.630327 C.ar        1 UNL1     -0.0516
     24 O         -9.918585   2.83609   6.977916 O.3        1 UNL1     -0.5068
     25 O         -6.229478   -2.991758   7.737615 O.2        1 UNL1     -0.2917
     26 O         -6.03053   -3.861208   5.193405 O.3        1 UNL1     -0.5058
     27 O         -0.407135   -0.289414   2.510063 O.3        1 UNL1     -0.3648
     28 O         0.40464   -1.918289   -0.60602 O.3        1 UNL1     -0.3841
     29 O         -2.448338   0.245751   -0.437825 O.3        1 UNL1     -0.3863
     30 O         -2.255498   -3.423053   -0.490762 O.3        1 UNL1     -0.3829
     31 H         0.579259   -1.872952   1.804781 H        1 UNL1     0.0937
     32 H         0.0   0.0   0.0 H        1 UNL1     0.0671
     33 H         -1.694572   -1.2371   -1.585313 H        1 UNL1     0.0649
     34 H         -3.7395   -2.02023   -0.286401 H        1 UNL1     0.0683
     35 H         -3.198607   -3.161521   1.815774 H        1 UNL1     0.1085
     36 H         -4.912254   -3.303705   2.969454 H        1 UNL1     0.0691
     37 H         -3.138782   0.405688   4.282998 H        1 UNL1     0.0691
     38 H         -3.945138   -1.469009   8.711082 H        1 UNL1     0.0385
     39 H         -5.576478   -1.158366   9.336199 H        1 UNL1     0.0385
     40 H         -4.383785   0.925763   8.559516 H        1 UNL1     0.0789
     41 H         -5.871131   1.481454   5.566787 H        1 UNL1     0.0623
     42 H         -8.041038   2.591919   5.219579 H        1 UNL1     0.0654
     43 H         -9.203248   1.602102   9.234416 H        1 UNL1     0.0654
     44 H         -7.08504   0.466794   9.595279 H        1 UNL1     0.0623
     45 H         -9.71843   3.76351   6.771647 H        1 UNL1     0.2921
     46 H         -5.658102   -4.378811   5.924703 H        1 UNL1     0.2922
     47 H         0.324305   0.309516   2.304785 H        1 UNL1     0.2126
     48 H         1.312624   -1.807158   -0.264042 H        1 UNL1     0.2101
     49 H         -1.991671   0.869808   -1.024171 H        1 UNL1     0.2100
     50 H         -2.420951   -3.417687   -1.456324 H        1 UNL1     0.2102
@<TRIPOS>BOND
     1     1     2    1
     2     1     6    1
     3     2     3    1
     4     3     4    1
     5     3    29    1
     6     3    33    1
     7     4     5    1
     8     5     6    1
     9     5     7    1
    10     5    35    1
    11     7     8    1
    12     8     9   ar
    13     8    13   ar
    14     9    10   ar
    15     9    36    1
    16    10    11   ar
    17    10    26    1
    18    11    12   ar
    19    11    14    1
    20    12    13   ar
    21    12    17    1
    22    13    37    1
    23    14    15    1
    24    14    25    2
    25    15    16    1
    26    15    38    1
    27    15    39    1
    28    16    17    1
    29    16    18    1
    30    16    40    1
    31    18    19   ar
    32    18    23   ar
    33    19    20   ar
    34    19    41    1
    35    20    21   ar
    36    20    42    1
    37    21    22   ar
    38    21    24    1
    39    22    23   ar
    40    22    43    1
    41    23    44    1
    42    24    45    1
    43    26    46    1
    44    27    47    1
    45    28    48    1
    46    29    49    1
    47    30    50    1
    48     1    31    1
    49     1    27    1
    50     2    32    1
    51     2    28    1
    52     4    34    1
    53     4    30    1
