@<TRIPOS>MOLECULE
*****
 50 53 0 0 0
SMALL
GASTEIGER

@<TRIPOS>ATOM
     1 C         -0.323092   -1.362479   1.676325 C.3        1 UNL1     0.1889
     2 C         -0.46442   -0.977662   0.179034 C.3        1 UNL1     0.1342
     3 C         -1.909455   -0.94895   -0.342039 C.3        1 UNL1     0.1174
     4 C         -2.794266   -2.018696   0.302842 C.3        1 UNL1     0.1456
     5 C         -2.630388   -2.076608   1.832598 C.3        1 UNL1     0.2326
     6 O         -1.26352   -2.306709   2.166653 O.3        1 UNL1     -0.3076
     7 O         -3.195842   -0.941457   2.51305 O.3        1 UNL1     -0.4605
     8 C         -3.733731   -1.190077   3.763007 C.ar        1 UNL1     0.1310
     9 C         -4.577242   -2.259014   4.084198 C.ar        1 UNL1     0.0226
     10 C         -5.057924   -2.435422   5.387167 C.ar        1 UNL1     0.1343
     11 C         -4.68719   -1.559809   6.406823 C.ar        1 UNL1     0.1007
     12 C         -3.878457   -0.465232   6.089592 C.ar        1 UNL1     0.1389
     13 C         -3.397405   -0.286577   4.778828 C.ar        1 UNL1     0.0229
     14 C         -5.097744   -1.746728   7.817731 C.2        1 UNL1     0.1740
     15 C         -4.429323   -0.844807   8.813372 C.3        1 UNL1     0.0520
     16 C         -4.321529   0.547176   8.206149 C.3        1 UNL1     0.1322
     17 O         -3.540783   0.517485   6.990985 O.3        1 UNL1     -0.4828
     18 C         -5.664784   1.269934   8.079613 C.ar        1 UNL1     -0.0067
     19 C         -6.00178   1.897148   6.862547 C.ar        1 UNL1     -0.0516
     20 C         -7.201033   2.60686   6.728149 C.ar        1 UNL1     -0.0198
     21 C         -8.066373   2.702699   7.803244 C.ar        1 UNL1     0.1169
     22 C         -7.777928   2.067696   9.004248 C.ar        1 UNL1     -0.0198
     23 C         -6.587374   1.342425   9.133163 C.ar        1 UNL1     -0.0516
     24 O         -9.20707   3.43394   7.646725 O.3        1 UNL1     -0.5068
     25 O         -5.870845   -2.62719   8.185953 O.2        1 UNL1     -0.2917
     26 O         -5.877881   -3.497579   5.634306 O.3        1 UNL1     -0.5058
     27 O         -0.206838   -0.242462   2.539363 O.3        1 UNL1     -0.3648
     28 O         0.256341   -1.942468   -0.609864 O.3        1 UNL1     -0.3841
     29 O         -2.461444   0.364727   -0.233907 O.3        1 UNL1     -0.3863
     30 O         -2.455714   -3.309485   -0.249367 O.3        1 UNL1     -0.3829
     31 H         0.636617   -1.881077   1.776793 H        1 UNL1     0.0937
     32 H         0.0   0.0   0.0 H        1 UNL1     0.0671
     33 H         -1.881974   -1.166145   -1.418975 H        1 UNL1     0.0649
     34 H         -3.845764   -1.83136   0.058594 H        1 UNL1     0.0683
     35 H         -3.185897   -2.976734   2.124253 H        1 UNL1     0.1085
     36 H         -4.856817   -3.005615   3.348981 H        1 UNL1     0.0691
     37 H         -2.7702   0.574299   4.557468 H        1 UNL1     0.0691
     38 H         -3.438674   -1.261309   9.024717 H        1 UNL1     0.0385
     39 H         -5.00693   -0.846959   9.74404 H        1 UNL1     0.0385
     40 H         -3.72725   1.157647   8.899458 H        1 UNL1     0.0789
     41 H         -5.335177   1.844311   6.006685 H        1 UNL1     0.0623
     42 H         -7.444035   3.096172   5.788184 H        1 UNL1     0.0654
     43 H         -8.455571   2.123691   9.847797 H        1 UNL1     0.0654
     44 H         -6.399121   0.850143   10.082407 H        1 UNL1     0.0623
     45 H         -8.958561   4.354867   7.46547 H        1 UNL1     0.2921
     46 H         -5.498287   -4.041406   6.342523 H        1 UNL1     0.2922
     47 H         0.522968   0.325201   2.254756 H        1 UNL1     0.2126
     48 H         1.196449   -1.863999   -0.357334 H        1 UNL1     0.2101
     49 H         -2.031535   0.956833   -0.871389 H        1 UNL1     0.2100
     50 H         -2.701909   -3.305749   -1.197569 H        1 UNL1     0.2102
@<TRIPOS>BOND
     1     1     2    1
     2     1     6    1
     3     2     3    1
     4     3     4    1
     5     3    29    1
     6     3    33    1
     7     4     5    1
     8     5     6    1
     9     5     7    1
    10     5    35    1
    11     7     8    1
    12     8     9   ar
    13     8    13   ar
    14     9    10   ar
    15     9    36    1
    16    10    11   ar
    17    10    26    1
    18    11    12   ar
    19    11    14    1
    20    12    13   ar
    21    12    17    1
    22    13    37    1
    23    14    15    1
    24    14    25    2
    25    15    16    1
    26    15    38    1
    27    15    39    1
    28    16    17    1
    29    16    18    1
    30    16    40    1
    31    18    19   ar
    32    18    23   ar
    33    19    20   ar
    34    19    41    1
    35    20    21   ar
    36    20    42    1
    37    21    22   ar
    38    21    24    1
    39    22    23   ar
    40    22    43    1
    41    23    44    1
    42    24    45    1
    43    26    46    1
    44    27    47    1
    45    28    48    1
    46    29    49    1
    47    30    50    1
    48     1    31    1
    49     1    27    1
    50     2    32    1
    51     2    28    1
    52     4    34    1
    53     4    30    1
