@<TRIPOS>MOLECULE
*****
 50 53 0 0 0
SMALL
GASTEIGER

@<TRIPOS>ATOM
     1 C         -0.335042   -1.330132   1.699794 C.3        1 UNL1     0.1889
     2 C         -0.464137   -0.974916   0.194106 C.3        1 UNL1     0.1342
     3 C         -1.904665   -0.959308   -0.339843 C.3        1 UNL1     0.1174
     4 C         -2.793032   -2.018043   0.318186 C.3        1 UNL1     0.1456
     5 C         -2.642275   -2.045737   1.850136 C.3        1 UNL1     0.2326
     6 O         -1.277921   -2.266505   2.200374 O.3        1 UNL1     -0.3076
     7 O         -3.215692   -0.898659   2.503379 O.3        1 UNL1     -0.4605
     8 C         -3.726667   -1.115097   3.770496 C.ar        1 UNL1     0.1310
     9 C         -4.545079   -2.187248   4.141975 C.ar        1 UNL1     0.0226
     10 C         -4.999209   -2.328785   5.458651 C.ar        1 UNL1     0.1343
     11 C         -4.626048   -1.413688   6.442108 C.ar        1 UNL1     0.1007
     12 C         -3.842791   -0.316385   6.074388 C.ar        1 UNL1     0.1389
     13 C         -3.38847   -0.172854   4.749842 C.ar        1 UNL1     0.0229
     14 C         -5.00796   -1.560951   7.865699 C.2        1 UNL1     0.1740
     15 C         -4.338105   -0.615215   8.818814 C.3        1 UNL1     0.0520
     16 C         -4.266052   0.757599   8.164485 C.3        1 UNL1     0.1322
     17 O         -3.506703   0.701264   6.93677 O.3        1 UNL1     -0.4828
     18 C         -5.62405   1.452473   8.03913 C.ar        1 UNL1     -0.0067
     19 C         -6.000148   2.020172   6.804431 C.ar        1 UNL1     -0.0516
     20 C         -7.214168   2.703978   6.668311 C.ar        1 UNL1     -0.0198
     21 C         -8.055575   2.83303   7.758819 C.ar        1 UNL1     0.1169
     22 C         -7.72825   2.256066   8.978987 C.ar        1 UNL1     -0.0198
     23 C         -6.522789   1.556338   9.110519 C.ar        1 UNL1     -0.0516
     24 O         -9.211948   3.53831   7.598252 O.3        1 UNL1     -0.5068
     25 O         -5.758513   -2.441987   8.27671 O.2        1 UNL1     -0.2917
     26 O         -5.795518   -3.3962   5.755473 O.3        1 UNL1     -0.5058
     27 O         -0.228328   -0.193241   2.541743 O.3        1 UNL1     -0.3648
     28 O         0.265202   -1.953486   -0.569551 O.3        1 UNL1     -0.3841
     29 O         -2.460002   0.355111   -0.262164 O.3        1 UNL1     -0.3863
     30 O         -2.447328   -3.318683   -0.205753 O.3        1 UNL1     -0.3829
     31 H         0.624722   -1.844727   1.818634 H        1 UNL1     0.0937
     32 H         0.0   0.0   0.0 H        1 UNL1     0.0671
     33 H         -1.867474   -1.197438   -1.412052 H        1 UNL1     0.0649
     34 H         -3.842726   -1.837639   0.061284 H        1 UNL1     0.0683
     35 H         -3.198615   -2.941116   2.154538 H        1 UNL1     0.1085
     36 H         -4.824341   -2.962451   3.436856 H        1 UNL1     0.0691
     37 H         -2.780796   0.690943   4.488917 H        1 UNL1     0.0691
     38 H         -3.336559   -1.007335   9.025392 H        1 UNL1     0.0385
     39 H         -4.898886   -0.596593   9.759535 H        1 UNL1     0.0385
     40 H         -3.670501   1.400817   8.826384 H        1 UNL1     0.0789
     41 H         -5.352989   1.940513   5.935817 H        1 UNL1     0.0623
     42 H         -7.48746   3.147598   5.714097 H        1 UNL1     0.0654
     43 H         -8.386787   2.338163   9.835433 H        1 UNL1     0.0654
     44 H         -6.303953   1.109281   10.075452 H        1 UNL1     0.0623
     45 H         -8.984121   4.446425   7.341076 H        1 UNL1     0.2921
     46 H         -5.393002   -3.91047   6.473052 H        1 UNL1     0.2922
     47 H         0.515698   0.359669   2.265019 H        1 UNL1     0.2126
     48 H         1.198079   -1.889566   -0.287791 H        1 UNL1     0.2101
     49 H         -2.019969   0.937601   -0.901595 H        1 UNL1     0.2100
     50 H         -2.680103   -3.332044   -1.157252 H        1 UNL1     0.2102
@<TRIPOS>BOND
     1     1     2    1
     2     1     6    1
     3     2     3    1
     4     3     4    1
     5     3    29    1
     6     3    33    1
     7     4     5    1
     8     5     6    1
     9     5     7    1
    10     5    35    1
    11     7     8    1
    12     8     9   ar
    13     8    13   ar
    14     9    10   ar
    15     9    36    1
    16    10    11   ar
    17    10    26    1
    18    11    12   ar
    19    11    14    1
    20    12    13   ar
    21    12    17    1
    22    13    37    1
    23    14    15    1
    24    14    25    2
    25    15    16    1
    26    15    38    1
    27    15    39    1
    28    16    17    1
    29    16    18    1
    30    16    40    1
    31    18    19   ar
    32    18    23   ar
    33    19    20   ar
    34    19    41    1
    35    20    21   ar
    36    20    42    1
    37    21    22   ar
    38    21    24    1
    39    22    23   ar
    40    22    43    1
    41    23    44    1
    42    24    45    1
    43    26    46    1
    44    27    47    1
    45    28    48    1
    46    29    49    1
    47    30    50    1
    48     1    31    1
    49     1    27    1
    50     2    32    1
    51     2    28    1
    52     4    34    1
    53     4    30    1
