@<TRIPOS>MOLECULE
*****
 50 53 0 0 0
SMALL
GASTEIGER

@<TRIPOS>ATOM
     1 C         -0.334589   -1.330893   1.699288 C.3        1 UNL1     0.1889
     2 C         -0.463862   -0.975118   0.193747 C.3        1 UNL1     0.1342
     3 C         -1.904423   -0.95969   -0.340117 C.3        1 UNL1     0.1174
     4 C         -2.792468   -2.018924   0.317543 C.3        1 UNL1     0.1456
     5 C         -2.64162   -2.047182   1.849473 C.3        1 UNL1     0.2326
     6 O         -1.277187   -2.267719   2.199549 O.3        1 UNL1     -0.3076
     7 O         -3.215311   -0.900517   2.5032 O.3        1 UNL1     -0.4605
     8 C         -3.726158   -1.117594   3.77026 C.ar        1 UNL1     0.1310
     9 C         -4.566782   -2.174802   4.134903 C.ar        1 UNL1     0.0226
     10 C         -5.018946   -2.318732   5.451996 C.ar        1 UNL1     0.1343
     11 C         -4.621808   -1.421526   6.442523 C.ar        1 UNL1     0.1007
     12 C         -3.815757   -0.338429   6.082016 C.ar        1 UNL1     0.1389
     13 C         -3.363388   -0.192435   4.757071 C.ar        1 UNL1     0.0229
     14 C         -5.001493   -1.573798   7.866182 C.2        1 UNL1     0.1740
     15 C         -4.307172   -0.652258   8.825469 C.3        1 UNL1     0.0520
     16 C         -4.207107   0.724775   8.183811 C.3        1 UNL1     0.1322
     17 O         -3.453863   0.663273   6.952587 O.3        1 UNL1     -0.4828
     18 C         -5.549792   1.450771   8.070443 C.ar        1 UNL1     -0.0067
     19 C         -5.917863   2.038381   6.84266 C.ar        1 UNL1     -0.0516
     20 C         -7.116891   2.75022   6.717847 C.ar        1 UNL1     -0.0198
     21 C         -7.951078   2.887542   7.812883 C.ar        1 UNL1     0.1169
     22 C         -7.632029   2.29189   9.026244 C.ar        1 UNL1     -0.0198
     23 C         -6.441928   1.564368   9.146353 C.ar        1 UNL1     -0.0516
     24 O         -9.09209   3.619802   7.663596 O.3        1 UNL1     -0.5068
     25 O         -5.769877   -2.441828   8.271883 O.2        1 UNL1     -0.2917
     26 O         -5.83765   -3.370987   5.741942 O.3        1 UNL1     -0.5058
     27 O         -0.228136   -0.194305   2.541679 O.3        1 UNL1     -0.3648
     28 O         0.2657   -1.953189   -0.570336 O.3        1 UNL1     -0.3841
     29 O         -2.460113   0.354549   -0.261889 O.3        1 UNL1     -0.3863
     30 O         -2.446441   -3.319264   -0.206929 O.3        1 UNL1     -0.3829
     31 H         0.625321   -1.845275   1.817872 H        1 UNL1     0.0937
     32 H         0.0   0.0   0.0 H        1 UNL1     0.0671
     33 H         -1.867227   -1.197386   -1.412422 H        1 UNL1     0.0649
     34 H         -3.842224   -1.838704   0.06077 H        1 UNL1     0.0683
     35 H         -3.1977   -2.942832   2.153552 H        1 UNL1     0.1085
     36 H         -4.865879   -2.936883   3.42364 H        1 UNL1     0.0691
     37 H         -2.73766   0.660106   4.501859 H        1 UNL1     0.0691
     38 H         -3.313811   -1.068449   9.024332 H        1 UNL1     0.0385
     39 H         -4.863826   -0.630136   9.768562 H        1 UNL1     0.0385
     40 H         -3.5949   1.348302   8.849346 H        1 UNL1     0.0789
     41 H         -5.275935   1.952639   5.970749 H        1 UNL1     0.0623
     42 H         -7.383876   3.208841   5.768954 H        1 UNL1     0.0654
     43 H         -8.285324   2.380438   9.886056 H        1 UNL1     0.0654
     44 H         -6.229422   1.103417   10.106151 H        1 UNL1     0.0623
     45 H         -8.844909   4.526473   7.419535 H        1 UNL1     0.2921
     46 H         -5.444612   -3.900073   6.453983 H        1 UNL1     0.2922
     47 H         0.514034   0.360332   2.263434 H        1 UNL1     0.2126
     48 H         1.201338   -1.87743   -0.300938 H        1 UNL1     0.2101
     49 H         -2.020273   0.937409   -0.901114 H        1 UNL1     0.2100
     50 H         -2.684486   -3.334235   -1.157099 H        1 UNL1     0.2102
@<TRIPOS>BOND
     1     1     2    1
     2     1     6    1
     3     2     3    1
     4     3     4    1
     5     3    29    1
     6     3    33    1
     7     4     5    1
     8     5     6    1
     9     5     7    1
    10     5    35    1
    11     7     8    1
    12     8     9   ar
    13     8    13   ar
    14     9    10   ar
    15     9    36    1
    16    10    11   ar
    17    10    26    1
    18    11    12   ar
    19    11    14    1
    20    12    13   ar
    21    12    17    1
    22    13    37    1
    23    14    15    1
    24    14    25    2
    25    15    16    1
    26    15    38    1
    27    15    39    1
    28    16    17    1
    29    16    18    1
    30    16    40    1
    31    18    19   ar
    32    18    23   ar
    33    19    20   ar
    34    19    41    1
    35    20    21   ar
    36    20    42    1
    37    21    22   ar
    38    21    24    1
    39    22    23   ar
    40    22    43    1
    41    23    44    1
    42    24    45    1
    43    26    46    1
    44    27    47    1
    45    28    48    1
    46    29    49    1
    47    30    50    1
    48     1    31    1
    49     1    27    1
    50     2    32    1
    51     2    28    1
    52     4    34    1
    53     4    30    1
