@<TRIPOS>MOLECULE
*****
 50 53 0 0 0
SMALL
GASTEIGER

@<TRIPOS>ATOM
     1 C         -0.330278   -1.327177   1.703034 C.3        1 UNL1     0.1889
     2 C         -0.461626   -0.975591   0.196689 C.3        1 UNL1     0.1342
     3 C         -1.902685   -0.964597   -0.335941 C.3        1 UNL1     0.1174
     4 C         -2.787906   -2.023995   0.325252 C.3        1 UNL1     0.1456
     5 C         -2.635653   -2.047952   1.857117 C.3        1 UNL1     0.2326
     6 O         -1.270449   -2.264691   2.20656 O.3        1 UNL1     -0.3076
     7 O         -3.211198   -0.900808   2.50837 O.3        1 UNL1     -0.4605
     8 C         -3.720046   -1.115565   3.776629 C.ar        1 UNL1     0.1310
     9 C         -4.535247   -2.188928   4.15165 C.ar        1 UNL1     0.0226
     10 C         -4.987382   -2.328522   5.46922 C.ar        1 UNL1     0.1343
     11 C         -4.615348   -1.410156   6.450054 C.ar        1 UNL1     0.1007
     12 C         -3.835362   -0.311722   6.078776 C.ar        1 UNL1     0.1389
     13 C         -3.383051   -0.170152   4.753331 C.ar        1 UNL1     0.0229
     14 C         -4.995118   -1.555038   7.874462 C.2        1 UNL1     0.1740
     15 C         -4.326508   -0.605346   8.824513 C.3        1 UNL1     0.0520
     16 C         -4.258783   0.766101   8.166864 C.3        1 UNL1     0.1322
     17 O         -3.500815   0.708815   6.93834 O.3        1 UNL1     -0.4828
     18 C         -5.618713   1.457199   8.041563 C.ar        1 UNL1     -0.0067
     19 C         -5.999021   2.018463   6.805213 C.ar        1 UNL1     -0.0516
     20 C         -7.21497   2.698785   6.668861 C.ar        1 UNL1     -0.0198
     21 C         -8.054147   2.830743   7.760739 C.ar        1 UNL1     0.1169
     22 C         -7.722623   2.260035   8.982714 C.ar        1 UNL1     -0.0198
     23 C         -6.515205   1.56375   9.114569 C.ar        1 UNL1     -0.0516
     24 O         -9.212558   3.532565   7.59971 O.3        1 UNL1     -0.5068
     25 O         -5.7429   -2.437021   8.288482 O.2        1 UNL1     -0.2917
     26 O         -5.780584   -3.397269   5.769547 O.3        1 UNL1     -0.5058
     27 O         -0.225492   -0.188181   2.542376 O.3        1 UNL1     -0.3648
     28 O         0.269335   -1.954098   -0.565495 O.3        1 UNL1     -0.3841
     29 O         -2.461087   0.348661   -0.260636 O.3        1 UNL1     -0.3863
     30 O         -2.439586   -3.324959   -0.196145 O.3        1 UNL1     -0.3829
     31 H         0.630824   -1.839217   1.822105 H        1 UNL1     0.0937
     32 H         0.0   0.0   0.0 H        1 UNL1     0.0671
     33 H         -1.865927   -1.205001   -1.407657 H        1 UNL1     0.0649
     34 H         -3.838267   -1.846664   0.06894 H        1 UNL1     0.0683
     35 H         -3.189568   -2.943983   2.164013 H        1 UNL1     0.1085
     36 H         -4.813395   -2.966504   3.448707 H        1 UNL1     0.0691
     37 H         -2.777917   0.69458   4.489617 H        1 UNL1     0.0691
     38 H         -3.323705   -0.994413   9.030766 H        1 UNL1     0.0385
     39 H         -4.886169   -0.585941   9.765885 H        1 UNL1     0.0385
     40 H         -3.664063   1.412401   8.826504 H        1 UNL1     0.0789
     41 H         -5.353693   1.936434   5.935457 H        1 UNL1     0.0623
     42 H         -7.491528   3.137473   5.713309 H        1 UNL1     0.0654
     43 H         -8.379363   2.34442   9.840317 H        1 UNL1     0.0654
     44 H         -6.293071   1.121545   10.080983 H        1 UNL1     0.0623
     45 H         -9.958539   2.941039   7.790303 H        1 UNL1     0.2921
     46 H         -5.375216   -3.909541   6.486949 H        1 UNL1     0.2922
     47 H         0.517058   0.365803   2.263843 H        1 UNL1     0.2126
     48 H         1.20214   -1.888064   -0.283986 H        1 UNL1     0.2101
     49 H         -2.022865   0.930853   -0.901579 H        1 UNL1     0.2100
     50 H         -2.673217   -3.340973   -1.147393 H        1 UNL1     0.2102
@<TRIPOS>BOND
     1     1     2    1
     2     1     6    1
     3     2     3    1
     4     3     4    1
     5     3    29    1
     6     3    33    1
     7     4     5    1
     8     5     6    1
     9     5     7    1
    10     5    35    1
    11     7     8    1
    12     8     9   ar
    13     8    13   ar
    14     9    10   ar
    15     9    36    1
    16    10    11   ar
    17    10    26    1
    18    11    12   ar
    19    11    14    1
    20    12    13   ar
    21    12    17    1
    22    13    37    1
    23    14    15    1
    24    14    25    2
    25    15    16    1
    26    15    38    1
    27    15    39    1
    28    16    17    1
    29    16    18    1
    30    16    40    1
    31    18    19   ar
    32    18    23   ar
    33    19    20   ar
    34    19    41    1
    35    20    21   ar
    36    20    42    1
    37    21    22   ar
    38    21    24    1
    39    22    23   ar
    40    22    43    1
    41    23    44    1
    42    24    45    1
    43    26    46    1
    44    27    47    1
    45    28    48    1
    46    29    49    1
    47    30    50    1
    48     1    31    1
    49     1    27    1
    50     2    32    1
    51     2    28    1
    52     4    34    1
    53     4    30    1
