@<TRIPOS>MOLECULE
*****
 50 53 0 0 0
SMALL
GASTEIGER

@<TRIPOS>ATOM
     1 C         -0.31342   -1.358083   1.68172 C.3        1 UNL1     0.1889
     2 C         -0.459331   -0.979267   0.183338 C.3        1 UNL1     0.1342
     3 C         -1.905429   -0.959427   -0.335189 C.3        1 UNL1     0.1174
     4 C         -2.783853   -2.031168   0.315086 C.3        1 UNL1     0.1456
     5 C         -2.616926   -2.082861   1.844736 C.3        1 UNL1     0.2326
     6 O         -1.248351   -2.305129   2.177102 O.3        1 UNL1     -0.3076
     7 O         -3.186664   -0.948067   2.522203 O.3        1 UNL1     -0.4605
     8 C         -3.693911   -1.188661   3.786459 C.ar        1 UNL1     0.1310
     9 C         -4.512631   -2.266807   4.139443 C.ar        1 UNL1     0.0226
     10 C         -4.962771   -2.433563   5.454535 C.ar        1 UNL1     0.1343
     11 C         -4.585211   -1.538448   6.454564 C.ar        1 UNL1     0.1007
     12 C         -3.801598   -0.43518   6.105945 C.ar        1 UNL1     0.1389
     13 C         -3.351289   -0.266277   4.783022 C.ar        1 UNL1     0.0229
     14 C         -4.962801   -1.713123   7.876207 C.2        1 UNL1     0.1740
     15 C         -4.288603   -0.787174   8.84555 C.3        1 UNL1     0.0520
     16 C         -4.216716   0.598125   8.218066 C.3        1 UNL1     0.1322
     17 O         -3.461353   0.564894   6.987053 O.3        1 UNL1     -0.4828
     18 C         -5.574137   1.297132   8.110727 C.ar        1 UNL1     -0.0067
     19 C         -5.947045   1.902415   6.89303 C.ar        1 UNL1     -0.0516
     20 C         -7.160465   2.590622   6.774938 C.ar        1 UNL1     -0.0198
     21 C         -8.004439   2.686731   7.866863 C.ar        1 UNL1     0.1169
     22 C         -7.680273   2.072654   9.069636 C.ar        1 UNL1     -0.0198
     23 C         -6.475407   1.368677   9.182636 C.ar        1 UNL1     -0.0516
     24 O         -9.160146   3.397121   7.725128 O.3        1 UNL1     -0.5068
     25 O         -5.71327   -2.601059   8.272249 O.2        1 UNL1     -0.2917
     26 O         -5.759618   -3.505539   5.7329 O.3        1 UNL1     -0.5058
     27 O         -0.201055   -0.234462   2.540578 O.3        1 UNL1     -0.3648
     28 O         0.264687   -1.943349   -0.60346 O.3        1 UNL1     -0.3841
     29 O         -2.46361   0.351927   -0.230694 O.3        1 UNL1     -0.3863
     30 O         -2.440024   -3.322246   -0.233173 O.3        1 UNL1     -0.3829
     31 H         0.648982   -1.871651   1.782266 H        1 UNL1     0.0937
     32 H         0.0   0.0   0.0 H        1 UNL1     0.0671
     33 H         -1.878842   -1.180301   -1.411399 H        1 UNL1     0.0649
     34 H         -3.836692   -1.849813   0.072101 H        1 UNL1     0.0683
     35 H         -3.167518   -2.984637   2.140586 H        1 UNL1     0.1085
     36 H         -4.795212   -3.027646   3.420142 H        1 UNL1     0.0691
     37 H         -2.743246   0.601667   4.537156 H        1 UNL1     0.0691
     38 H         -3.286952   -1.184606   9.04118 H        1 UNL1     0.0385
     39 H         -4.846364   -0.786278   9.788248 H        1 UNL1     0.0385
     40 H         -3.618169   1.227431   8.890551 H        1 UNL1     0.0789
     41 H         -5.297833   1.848995   6.023939 H        1 UNL1     0.0623
     42 H         -7.43129   3.063277   5.834054 H        1 UNL1     0.0654
     43 H         -8.340833   2.128888   9.926613 H        1 UNL1     0.0654
     44 H         -6.259065   0.892285   10.133999 H        1 UNL1     0.0623
     45 H         -8.930813   4.319466   7.526629 H        1 UNL1     0.2921
     46 H         -5.356226   -4.033574   6.439912 H        1 UNL1     0.2922
     47 H         0.525462   0.33573   2.252632 H        1 UNL1     0.2126
     48 H         1.206294   -1.851586   -0.361202 H        1 UNL1     0.2101
     49 H         -2.037743   0.943851   -0.871051 H        1 UNL1     0.2100
     50 H         -2.687952   -3.323068   -1.18093 H        1 UNL1     0.2102
@<TRIPOS>BOND
     1     1     2    1
     2     1     6    1
     3     2     3    1
     4     3     4    1
     5     3    29    1
     6     3    33    1
     7     4     5    1
     8     5     6    1
     9     5     7    1
    10     5    35    1
    11     7     8    1
    12     8     9   ar
    13     8    13   ar
    14     9    10   ar
    15     9    36    1
    16    10    11   ar
    17    10    26    1
    18    11    12   ar
    19    11    14    1
    20    12    13   ar
    21    12    17    1
    22    13    37    1
    23    14    15    1
    24    14    25    2
    25    15    16    1
    26    15    38    1
    27    15    39    1
    28    16    17    1
    29    16    18    1
    30    16    40    1
    31    18    19   ar
    32    18    23   ar
    33    19    20   ar
    34    19    41    1
    35    20    21   ar
    36    20    42    1
    37    21    22   ar
    38    21    24    1
    39    22    23   ar
    40    22    43    1
    41    23    44    1
    42    24    45    1
    43    26    46    1
    44    27    47    1
    45    28    48    1
    46    29    49    1
    47    30    50    1
    48     1    31    1
    49     1    27    1
    50     2    32    1
    51     2    28    1
    52     4    34    1
    53     4    30    1
