@<TRIPOS>MOLECULE
*****
 50 53 0 0 0
SMALL
GASTEIGER

@<TRIPOS>ATOM
     1 C         0.066701   -1.662733   1.414806 C.3        1 UNL1     0.1889
     2 C         -0.638969   -0.435142   0.778416 C.3        1 UNL1     0.1342
     3 C         -1.034407   0.665157   1.775128 C.3        1 UNL1     0.1174
     4 C         -1.456685   0.108409   3.13705 C.3        1 UNL1     0.1456
     5 C         -0.483235   -0.961178   3.665008 C.3        1 UNL1     0.2326
     6 O         -0.366143   -2.021316   2.718822 O.3        1 UNL1     -0.3076
     7 O         0.788198   -0.42636   4.075798 O.3        1 UNL1     -0.4605
     8 C         1.74846   -0.317655   3.086046 C.ar        1 UNL1     0.1310
     9 C         2.39079   0.865894   2.706671 C.ar        1 UNL1     0.0226
     10 C         3.36509   0.870393   1.701374 C.ar        1 UNL1     0.1343
     11 C         3.738108   -0.313742   1.066928 C.ar        1 UNL1     0.1007
     12 C         3.074578   -1.495198   1.408504 C.ar        1 UNL1     0.1389
     13 C         2.093084   -1.499013   2.417507 C.ar        1 UNL1     0.0229
     14 C         4.820212   -0.380243   0.057581 C.2        1 UNL1     0.1740
     15 C         5.239301   -1.760707   -0.355012 C.3        1 UNL1     0.0520
     16 C         3.99213   -2.624239   -0.484763 C.3        1 UNL1     0.1322
     17 O         3.285608   -2.696943   0.773255 O.3        1 UNL1     -0.4828
     18 C         3.114341   -2.262448   -1.685312 C.ar        1 UNL1     -0.0067
     19 C         3.545754   -1.264176   -2.582836 C.ar        1 UNL1     -0.0516
     20 C         2.745683   -0.875947   -3.664097 C.ar        1 UNL1     -0.0198
     21 C         1.511721   -1.471839   -3.854037 C.ar        1 UNL1     0.1169
     22 C         1.073997   -2.481347   -3.006611 C.ar        1 UNL1     -0.0198
     23 C         1.881934   -2.882708   -1.936003 C.ar        1 UNL1     -0.0516
     24 O         0.743808   -1.041297   -4.895836 O.3        1 UNL1     -0.5068
     25 O         5.407891   0.609923   -0.369842 O.2        1 UNL1     -0.2917
     26 O         3.952925   2.058344   1.377636 O.3        1 UNL1     -0.5058
     27 O         1.481802   -1.608655   1.329069 O.3        1 UNL1     -0.3648
     28 O         -1.846221   -0.885312   0.13608 O.3        1 UNL1     -0.3841
     29 O         -0.005698   1.651981   1.875466 O.3        1 UNL1     -0.3863
     30 O         -2.771852   -0.477141   3.022347 O.3        1 UNL1     -0.3829
     31 H         -0.207323   -2.531374   0.806157 H        1 UNL1     0.0937
     32 H         0.0   0.0   0.0 H        1 UNL1     0.0671
     33 H         -1.905965   1.193051   1.363501 H        1 UNL1     0.0649
     34 H         -1.530621   0.922044   3.867072 H        1 UNL1     0.0683
     35 H         -0.994417   -1.373256   4.544077 H        1 UNL1     0.1085
     36 H         2.185585   1.809503   3.200243 H        1 UNL1     0.0691
     37 H         1.590457   -2.431787   2.664071 H        1 UNL1     0.0691
     38 H         5.909509   -2.148698   0.419462 H        1 UNL1     0.0385
     39 H         5.800348   -1.699947   -1.293794 H        1 UNL1     0.0385
     40 H         4.328727   -3.653187   -0.670472 H        1 UNL1     0.0789
     41 H         4.50625   -0.774786   -2.450186 H        1 UNL1     0.0623
     42 H         3.084265   -0.096605   -4.342331 H        1 UNL1     0.0654
     43 H         0.115992   -2.965213   -3.154969 H        1 UNL1     0.0654
     44 H         1.513125   -3.681733   -1.300091 H        1 UNL1     0.0623
     45 H         0.53382   -0.103836   -4.755164 H        1 UNL1     0.2921
     46 H         4.917306   1.951719   1.374008 H        1 UNL1     0.2922
     47 H         1.774392   -0.696621   1.193257 H        1 UNL1     0.2126
     48 H         -2.440472   -1.197965   0.845196 H        1 UNL1     0.2101
     49 H         0.86464   1.222672   1.874721 H        1 UNL1     0.2100
     50 H         -2.680094   -1.447034   3.125309 H        1 UNL1     0.2102
@<TRIPOS>BOND
     1     1     2    1
     2     1     6    1
     3     2     3    1
     4     3     4    1
     5     3    29    1
     6     3    33    1
     7     4     5    1
     8     5     6    1
     9     5     7    1
    10     5    35    1
    11     7     8    1
    12     8     9   ar
    13     8    13   ar
    14     9    10   ar
    15     9    36    1
    16    10    11   ar
    17    10    26    1
    18    11    12   ar
    19    11    14    1
    20    12    13   ar
    21    12    17    1
    22    13    37    1
    23    14    15    1
    24    14    25    2
    25    15    16    1
    26    15    38    1
    27    15    39    1
    28    16    17    1
    29    16    18    1
    30    16    40    1
    31    18    19   ar
    32    18    23   ar
    33    19    20   ar
    34    19    41    1
    35    20    21   ar
    36    20    42    1
    37    21    22   ar
    38    21    24    1
    39    22    23   ar
    40    22    43    1
    41    23    44    1
    42    24    45    1
    43    26    46    1
    44    27    47    1
    45    28    48    1
    46    29    49    1
    47    30    50    1
    48     1    31    1
    49     1    27    1
    50     2    32    1
    51     2    28    1
    52     4    34    1
    53     4    30    1
