@<TRIPOS>MOLECULE
*****
 50 53 0 0 0
SMALL
GASTEIGER

@<TRIPOS>ATOM
     1 C         -1.581761   -0.620942   1.372322 C.3        1 UNL1     0.1889
     2 C         -0.666264   0.461331   0.739478 C.3        1 UNL1     0.1342
     3 C         0.177798   1.256466   1.747339 C.3        1 UNL1     0.1174
     4 C         -0.546863   1.48906   3.075452 C.3        1 UNL1     0.1456
     5 C         -1.214435   0.211056   3.615282 C.3        1 UNL1     0.2326
     6 O         -2.123215   -0.308652   2.647351 O.3        1 UNL1     -0.3076
     7 O         -0.274567   -0.768854   4.092511 O.3        1 UNL1     -0.4605
     8 C         -0.70121   -2.084315   4.059866 C.ar        1 UNL1     0.1310
     9 C         -2.026837   -2.50258   3.901536 C.ar        1 UNL1     0.0226
     10 C         -2.35707   -3.86252   3.863954 C.ar        1 UNL1     0.1343
     11 C         -1.365784   -4.838207   3.96001 C.ar        1 UNL1     0.1007
     12 C         -0.043355   -4.433065   4.159574 C.ar        1 UNL1     0.1389
     13 C         0.288106   -3.06561   4.199979 C.ar        1 UNL1     0.0229
     14 C         -1.648259   -6.287525   3.842368 C.2        1 UNL1     0.1740
     15 C         -0.444354   -7.177856   3.745049 C.3        1 UNL1     0.0520
     16 C         0.615865   -6.661468   4.707981 C.3        1 UNL1     0.1322
     17 O         0.995988   -5.308189   4.374493 O.3        1 UNL1     -0.4828
     18 C         0.266553   -6.877187   6.182488 C.ar        1 UNL1     -0.0067
     19 C         -0.337991   -5.832216   6.911031 C.ar        1 UNL1     -0.0516
     20 C         -0.627159   -5.9797   8.272866 C.ar        1 UNL1     -0.0198
     21 C         -0.310678   -7.161891   8.917916 C.ar        1 UNL1     0.1169
     22 C         0.2545   -8.221124   8.21975 C.ar        1 UNL1     -0.0198
     23 C         0.526873   -8.080562   6.853693 C.ar        1 UNL1     -0.0516
     24 O         -0.572438   -7.255251   10.253269 O.3        1 UNL1     -0.5068
     25 O         -2.782153   -6.749819   3.747224 O.2        1 UNL1     -0.2917
     26 O         -3.66883   -4.204073   3.708353 O.3        1 UNL1     -0.5058
     27 O         -1.018745   -1.922925   1.347015 O.3        1 UNL1     -0.3648
     28 O         -1.494997   1.405178   0.035872 O.3        1 UNL1     -0.3841
     29 O         1.463915   0.656872   1.916225 O.3        1 UNL1     -0.3863
     30 O         -1.561438   2.500116   2.890803 O.3        1 UNL1     -0.3829
     31 H         -2.466088   -0.697041   0.730253 H        1 UNL1     0.0937
     32 H         0.0   0.0   0.0 H        1 UNL1     0.0671
     33 H         0.372493   2.247333   1.313754 H        1 UNL1     0.0649
     34 H         0.156188   1.873191   3.822823 H        1 UNL1     0.0683
     35 H         -1.817185   0.564564   4.461215 H        1 UNL1     0.1085
     36 H         -2.836077   -1.793559   3.765376 H        1 UNL1     0.0691
     37 H         1.32491   -2.776283   4.357523 H        1 UNL1     0.0691
     38 H         -0.088725   -7.14197   2.709787 H        1 UNL1     0.0385
     39 H         -0.740821   -8.208184   3.969351 H        1 UNL1     0.0385
     40 H         1.52542   -7.252587   4.535332 H        1 UNL1     0.0789
     41 H         -0.587845   -4.89113   6.429802 H        1 UNL1     0.0623
     42 H         -1.082561   -5.162285   8.826448 H        1 UNL1     0.0654
     43 H         0.492576   -9.156675   8.71166 H        1 UNL1     0.0654
     44 H         0.95899   -8.932242   6.337204 H        1 UNL1     0.0623
     45 H         -0.222879   -6.461942   10.690517 H        1 UNL1     0.2921
     46 H         -3.814185   -4.526582   2.804876 H        1 UNL1     0.2922
     47 H         -0.193608   -1.940757   1.851683 H        1 UNL1     0.2126
     48 H         -2.308567   0.928276   -0.217902 H        1 UNL1     0.2101
     49 H         1.386931   -0.14049   2.464022 H        1 UNL1     0.2100
     50 H         -1.701226   2.947609   3.75099 H        1 UNL1     0.2102
@<TRIPOS>BOND
     1     1     2    1
     2     1     6    1
     3     2     3    1
     4     3     4    1
     5     3    29    1
     6     3    33    1
     7     4     5    1
     8     5     6    1
     9     5     7    1
    10     5    35    1
    11     7     8    1
    12     8     9   ar
    13     8    13   ar
    14     9    10   ar
    15     9    36    1
    16    10    11   ar
    17    10    26    1
    18    11    12   ar
    19    11    14    1
    20    12    13   ar
    21    12    17    1
    22    13    37    1
    23    14    15    1
    24    14    25    2
    25    15    16    1
    26    15    38    1
    27    15    39    1
    28    16    17    1
    29    16    18    1
    30    16    40    1
    31    18    19   ar
    32    18    23   ar
    33    19    20   ar
    34    19    41    1
    35    20    21   ar
    36    20    42    1
    37    21    22   ar
    38    21    24    1
    39    22    23   ar
    40    22    43    1
    41    23    44    1
    42    24    45    1
    43    26    46    1
    44    27    47    1
    45    28    48    1
    46    29    49    1
    47    30    50    1
    48     1    31    1
    49     1    27    1
    50     2    32    1
    51     2    28    1
    52     4    34    1
    53     4    30    1
