@<TRIPOS>MOLECULE
*****
 50 53 0 0 0
SMALL
GASTEIGER

@<TRIPOS>ATOM
     1 C         -0.345053   -1.336004   1.693173 C.3        1 UNL1     0.1889
     2 C         -0.468942   -0.973669   0.188745 C.3        1 UNL1     0.1342
     3 C         -1.908097   -0.949304   -0.348566 C.3        1 UNL1     0.1174
     4 C         -2.802753   -2.006913   0.302718 C.3        1 UNL1     0.1456
     5 C         -2.655806   -2.041945   1.834888 C.3        1 UNL1     0.2326
     6 O         -1.293296   -2.270326   2.187414 O.3        1 UNL1     -0.3076
     7 O         -3.225675   -0.89517   2.491758 O.3        1 UNL1     -0.4605
     8 C         -3.74745   -1.116453   3.753627 C.ar        1 UNL1     0.1310
     9 C         -4.576284   -2.185107   4.111834 C.ar        1 UNL1     0.0226
     10 C         -5.041038   -2.332241   5.424182 C.ar        1 UNL1     0.1343
     11 C         -4.668469   -1.426559   6.41654 C.ar        1 UNL1     0.1007
     12 C         -3.874633   -0.332523   6.062008 C.ar        1 UNL1     0.1389
     13 C         -3.409617   -0.183343   4.741804 C.ar        1 UNL1     0.0229
     14 C         -5.061831   -1.580667   7.836283 C.2        1 UNL1     0.1740
     15 C         -4.392142   -0.646303   8.800664 C.3        1 UNL1     0.0520
     16 C         -4.305385   0.730346   8.156252 C.3        1 UNL1     0.1322
     17 O         -3.537511   0.676794   6.933726 O.3        1 UNL1     -0.4828
     18 C         -5.657373   1.435918   8.025782 C.ar        1 UNL1     -0.0067
     19 C         -6.013969   2.027651   6.796594 C.ar        1 UNL1     -0.0516
     20 C         -7.221921   2.721434   6.657015 C.ar        1 UNL1     -0.0198
     21 C         -8.076577   2.836589   7.73874 C.ar        1 UNL1     0.1169
     22 C         -7.768618   2.236158   8.952611 C.ar        1 UNL1     -0.0198
     23 C         -6.569262   1.526591   9.087211 C.ar        1 UNL1     -0.0516
     24 O         -9.22644   3.551907   7.57584 O.3        1 UNL1     -0.5068
     25 O         -5.821717   -2.458979   8.235818 O.2        1 UNL1     -0.2917
     26 O         -5.847189   -3.395816   5.70793 O.3        1 UNL1     -0.5058
     27 O         -0.235299   -0.203275   2.540324 O.3        1 UNL1     -0.3648
     28 O         0.257864   -1.952154   -0.57743 O.3        1 UNL1     -0.3841
     29 O         -2.457758   0.367232   -0.26648 O.3        1 UNL1     -0.3863
     30 O         -2.461589   -3.306793   -0.226062 O.3        1 UNL1     -0.3829
     31 H         0.61212   -1.855393   1.812057 H        1 UNL1     0.0937
     32 H         0.0   0.0   0.0 H        1 UNL1     0.0671
     33 H         -1.86939   -1.182931   -1.421711 H        1 UNL1     0.0649
     34 H         -3.851012   -1.820707   0.044103 H        1 UNL1     0.0683
     35 H         -3.21686   -2.936147   2.134054 H        1 UNL1     0.1085
     36 H         -4.855981   -2.953468   3.399436 H        1 UNL1     0.0691
     37 H         -2.793825   0.677753   4.491195 H        1 UNL1     0.0691
     38 H         -3.394993   -1.047091   9.011828 H        1 UNL1     0.0385
     39 H         -4.959634   -0.629966   9.737394 H        1 UNL1     0.0385
     40 H         -3.710054   1.364719   8.826828 H        1 UNL1     0.0789
     41 H         -5.356113   1.959203   5.935089 H        1 UNL1     0.0623
     42 H         -7.480113   3.183517   5.707369 H        1 UNL1     0.0654
     43 H         -8.437678   2.30733   9.801847 H        1 UNL1     0.0654
     44 H         -6.36568   1.061228   10.046813 H        1 UNL1     0.0623
     45 H         -8.989627   4.465024   7.345941 H        1 UNL1     0.2921
     46 H         -5.454349   -3.917069   6.425832 H        1 UNL1     0.2922
     47 H         0.509325   0.349652   2.265246 H        1 UNL1     0.2126
     48 H         1.193633   -1.879948   -0.307514 H        1 UNL1     0.2101
     49 H         -2.019321   0.948499   -0.908116 H        1 UNL1     0.2100
     50 H         -2.697367   -3.316877   -1.176862 H        1 UNL1     0.2102
@<TRIPOS>BOND
     1     1     2    1
     2     1     6    1
     3     2     3    1
     4     3     4    1
     5     3    29    1
     6     3    33    1
     7     4     5    1
     8     5     6    1
     9     5     7    1
    10     5    35    1
    11     7     8    1
    12     8     9   ar
    13     8    13   ar
    14     9    10   ar
    15     9    36    1
    16    10    11   ar
    17    10    26    1
    18    11    12   ar
    19    11    14    1
    20    12    13   ar
    21    12    17    1
    22    13    37    1
    23    14    15    1
    24    14    25    2
    25    15    16    1
    26    15    38    1
    27    15    39    1
    28    16    17    1
    29    16    18    1
    30    16    40    1
    31    18    19   ar
    32    18    23   ar
    33    19    20   ar
    34    19    41    1
    35    20    21   ar
    36    20    42    1
    37    21    22   ar
    38    21    24    1
    39    22    23   ar
    40    22    43    1
    41    23    44    1
    42    24    45    1
    43    26    46    1
    44    27    47    1
    45    28    48    1
    46    29    49    1
    47    30    50    1
    48     1    31    1
    49     1    27    1
    50     2    32    1
    51     2    28    1
    52     4    34    1
    53     4    30    1
