@<TRIPOS>MOLECULE
*****
 50 53 0 0 0
SMALL
GASTEIGER

@<TRIPOS>ATOM
     1 C         -1.215505   -0.324293   1.785549 C.3        1 UNL1     0.1889
     2 C         0.114564   -0.448366   0.994688 C.3        1 UNL1     0.1342
     3 C         0.63682   -1.884919   0.839674 C.3        1 UNL1     0.1174
     4 C         0.339609   -2.759429   2.060336 C.3        1 UNL1     0.1456
     5 C         -1.11449   -2.61965   2.546567 C.3        1 UNL1     0.2326
     6 O         -1.398808   -1.254279   2.842867 O.3        1 UNL1     -0.3076
     7 O         -2.075934   -3.218   1.658354 O.3        1 UNL1     -0.4605
     8 C         -3.150765   -2.422682   1.303761 C.ar        1 UNL1     0.1310
     9 C         -3.6645   -2.284433   0.009828 C.ar        1 UNL1     0.0226
     10 C         -4.770616   -1.465314   -0.246011 C.ar        1 UNL1     0.1343
     11 C         -5.405164   -0.782526   0.790806 C.ar        1 UNL1     0.1007
     12 C         -4.876216   -0.880356   2.080545 C.ar        1 UNL1     0.1389
     13 C         -3.762401   -1.701957   2.337094 C.ar        1 UNL1     0.0229
     14 C         -6.627601   0.029719   0.590655 C.2        1 UNL1     0.1740
     15 C         -7.301655   0.507936   1.843057 C.3        1 UNL1     0.0520
     16 C         -6.228475   0.937632   2.833815 C.3        1 UNL1     0.1322
     17 O         -5.355139   -0.167422   3.15508 O.3        1 UNL1     -0.4828
     18 C         -5.502498   2.225027   2.435955 C.ar        1 UNL1     -0.0067
     19 C         -5.739575   2.789546   1.165787 C.ar        1 UNL1     -0.0516
     20 C         -5.056894   3.93967   0.752113 C.ar        1 UNL1     -0.0198
     21 C         -4.131368   4.529137   1.594583 C.ar        1 UNL1     0.1169
     22 C         -3.900672   4.015949   2.86433 C.ar        1 UNL1     -0.0198
     23 C         -4.596728   2.876528   3.285379 C.ar        1 UNL1     -0.0516
     24 O         -3.458261   5.626028   1.142744 O.3        1 UNL1     -0.5068
     25 O         -7.123474   0.244655   -0.512249 O.2        1 UNL1     -0.2917
     26 O         -5.221898   -1.37279   -1.530289 O.3        1 UNL1     -0.5058
     27 O         -2.362238   -0.243866   0.954092 O.3        1 UNL1     -0.3648
     28 O         1.12855   0.303741   1.686696 O.3        1 UNL1     -0.3841
     29 O         0.173459   -2.463838   -0.381916 O.3        1 UNL1     -0.3863
     30 O         1.22689   -2.387016   3.137245 O.3        1 UNL1     -0.3829
     31 H         -1.185615   0.643454   2.298045 H        1 UNL1     0.0937
     32 H         0.0   0.0   -0.0 H        1 UNL1     0.0671
     33 H         1.73039   -1.835546   0.742785 H        1 UNL1     0.0649
     34 H         0.543199   -3.810184   1.826102 H        1 UNL1     0.0683
     35 H         -1.127912   -3.162423   3.500033 H        1 UNL1     0.1085
     36 H         -3.250646   -2.8324   -0.829563 H        1 UNL1     0.0691
     37 H         -3.369101   -1.760154   3.349725 H        1 UNL1     0.0691
     38 H         -7.894086   -0.323964   2.238649 H        1 UNL1     0.0385
     39 H         -7.985471   1.326145   1.592638 H        1 UNL1     0.0385
     40 H         -6.735834   1.170595   3.779773 H        1 UNL1     0.0789
     41 H         -6.454428   2.340418   0.482471 H        1 UNL1     0.0623
     42 H         -5.239757   4.358568   -0.234344 H        1 UNL1     0.0654
     43 H         -3.189085   4.478407   3.537892 H        1 UNL1     0.0654
     44 H         -4.399335   2.508895   4.28774 H        1 UNL1     0.0623
     45 H         -3.983041   6.039115   0.437987 H        1 UNL1     0.2921
     46 H         -5.791554   -2.132783   -1.72857 H        1 UNL1     0.2922
     47 H         -3.135234   -0.599319   1.414516 H        1 UNL1     0.2126
     48 H         1.383503   1.038661   1.096253 H        1 UNL1     0.2101
     49 H         -0.578681   -1.954799   -0.723911 H        1 UNL1     0.2100
     50 H         1.364522   -3.176216   3.701101 H        1 UNL1     0.2102
@<TRIPOS>BOND
     1     1     2    1
     2     1     6    1
     3     2     3    1
     4     3     4    1
     5     3    29    1
     6     3    33    1
     7     4     5    1
     8     5     6    1
     9     5     7    1
    10     5    35    1
    11     7     8    1
    12     8     9   ar
    13     8    13   ar
    14     9    10   ar
    15     9    36    1
    16    10    11   ar
    17    10    26    1
    18    11    12   ar
    19    11    14    1
    20    12    13   ar
    21    12    17    1
    22    13    37    1
    23    14    15    1
    24    14    25    2
    25    15    16    1
    26    15    38    1
    27    15    39    1
    28    16    17    1
    29    16    18    1
    30    16    40    1
    31    18    19   ar
    32    18    23   ar
    33    19    20   ar
    34    19    41    1
    35    20    21   ar
    36    20    42    1
    37    21    22   ar
    38    21    24    1
    39    22    23   ar
    40    22    43    1
    41    23    44    1
    42    24    45    1
    43    26    46    1
    44    27    47    1
    45    28    48    1
    46    29    49    1
    47    30    50    1
    48     1    31    1
    49     1    27    1
    50     2    32    1
    51     2    28    1
    52     4    34    1
    53     4    30    1
