@<TRIPOS>MOLECULE
*****
 50 53 0 0 0
SMALL
GASTEIGER

@<TRIPOS>ATOM
     1 C         -0.537798   -1.999824   -0.694465 C.3        1 UNL1     0.1889
     2 C         -0.105408   -1.008373   0.419089 C.3        1 UNL1     0.1342
     3 C         1.194072   -1.387333   1.145868 C.3        1 UNL1     0.1174
     4 C         1.367855   -2.900237   1.300909 C.3        1 UNL1     0.1456
     5 C         1.077769   -3.664432   -0.003783 C.3        1 UNL1     0.2326
     6 O         -0.240946   -3.368117   -0.45772 O.3        1 UNL1     -0.3076
     7 O         2.081707   -3.471018   -1.016709 O.3        1 UNL1     -0.4605
     8 C         1.727978   -3.846293   -2.300288 C.ar        1 UNL1     0.1310
     9 C         2.510105   -4.622693   -3.162134 C.ar        1 UNL1     0.0226
     10 C         2.055394   -4.965116   -4.441152 C.ar        1 UNL1     0.1343
     11 C         0.79621   -4.558987   -4.880874 C.ar        1 UNL1     0.1007
     12 C         0.023161   -3.74891   -4.044839 C.ar        1 UNL1     0.1389
     13 C         0.481704   -3.402534   -2.759851 C.ar        1 UNL1     0.0229
     14 C         0.231498   -4.962226   -6.189557 C.2        1 UNL1     0.1740
     15 C         -1.214451   -4.623894   -6.40476 C.3        1 UNL1     0.0520
     16 C         -1.475262   -3.237532   -5.832104 C.3        1 UNL1     0.1322
     17 O         -1.183563   -3.203806   -4.417592 O.3        1 UNL1     -0.4828
     18 C         -0.833253   -2.106642   -6.639345 C.ar        1 UNL1     -0.0067
     19 C         -1.653833   -1.117352   -7.219145 C.ar        1 UNL1     -0.0516
     20 C         -1.103321   -0.096194   -8.002813 C.ar        1 UNL1     -0.0198
     21 C         0.262428   -0.057594   -8.219758 C.ar        1 UNL1     0.1169
     22 C         1.100039   -0.998322   -7.634713 C.ar        1 UNL1     -0.0198
     23 C         0.551746   -2.008893   -6.835853 C.ar        1 UNL1     -0.0516
     24 O         0.758336   0.929771   -9.019499 O.3        1 UNL1     -0.5068
     25 O         0.859418   -5.603054   -7.028331 O.2        1 UNL1     -0.2917
     26 O         2.867139   -5.723762   -5.233055 O.3        1 UNL1     -0.5058
     27 O         -0.142743   -1.595742   -1.995787 O.3        1 UNL1     -0.3648
     28 O         -1.148976   -0.951169   1.40924 O.3        1 UNL1     -0.3841
     29 O         2.320975   -0.761108   0.529374 O.3        1 UNL1     -0.3863
     30 O         0.47103   -3.377369   2.327427 O.3        1 UNL1     -0.3829
     31 H         -1.632594   -1.977025   -0.725765 H        1 UNL1     0.0937
     32 H         0.0   0.0   0.0 H        1 UNL1     0.0671
     33 H         1.145671   -0.967392   2.160278 H        1 UNL1     0.0649
     34 H         2.3865   -3.127453   1.63428 H        1 UNL1     0.0683
     35 H         1.080925   -4.718524   0.300781 H        1 UNL1     0.1085
     36 H         3.474069   -5.016077   -2.858581 H        1 UNL1     0.0691
     37 H         -0.138684   -2.769855   -2.128719 H        1 UNL1     0.0691
     38 H         -1.812463   -5.383021   -5.889363 H        1 UNL1     0.0385
     39 H         -1.440525   -4.679007   -7.475102 H        1 UNL1     0.0385
     40 H         -2.55754   -3.060273   -5.893544 H        1 UNL1     0.0789
     41 H         -2.729766   -1.130846   -7.07137 H        1 UNL1     0.0623
     42 H         -1.747858   0.653986   -8.454271 H        1 UNL1     0.0654
     43 H         2.172526   -0.968668   -7.785717 H        1 UNL1     0.0654
     44 H         1.236765   -2.720974   -6.385814 H        1 UNL1     0.0623
     45 H         1.555857   1.292101   -8.600698 H        1 UNL1     0.2921
     46 H         3.254912   -5.166833   -5.926506 H        1 UNL1     0.2922
     47 H         0.821322   -1.536312   -2.049682 H        1 UNL1     0.2126
     48 H         -1.980007   -1.186908   0.953666 H        1 UNL1     0.2101
     49 H         2.762732   -0.176534   1.165705 H        1 UNL1     0.2100
     50 H         -0.286142   -3.815492   1.886461 H        1 UNL1     0.2102
@<TRIPOS>BOND
     1     1     2    1
     2     1     6    1
     3     2     3    1
     4     3     4    1
     5     3    29    1
     6     3    33    1
     7     4     5    1
     8     5     6    1
     9     5     7    1
    10     5    35    1
    11     7     8    1
    12     8     9   ar
    13     8    13   ar
    14     9    10   ar
    15     9    36    1
    16    10    11   ar
    17    10    26    1
    18    11    12   ar
    19    11    14    1
    20    12    13   ar
    21    12    17    1
    22    13    37    1
    23    14    15    1
    24    14    25    2
    25    15    16    1
    26    15    38    1
    27    15    39    1
    28    16    17    1
    29    16    18    1
    30    16    40    1
    31    18    19   ar
    32    18    23   ar
    33    19    20   ar
    34    19    41    1
    35    20    21   ar
    36    20    42    1
    37    21    22   ar
    38    21    24    1
    39    22    23   ar
    40    22    43    1
    41    23    44    1
    42    24    45    1
    43    26    46    1
    44    27    47    1
    45    28    48    1
    46    29    49    1
    47    30    50    1
    48     1    31    1
    49     1    27    1
    50     2    32    1
    51     2    28    1
    52     4    34    1
    53     4    30    1
