@<TRIPOS>MOLECULE
*****
 50 53 0 0 0
SMALL
GASTEIGER

@<TRIPOS>ATOM
     1 C         -0.333793   -1.328824   1.701062 C.3        1 UNL1     0.1889
     2 C         -0.463492   -0.975026   0.195092 C.3        1 UNL1     0.1342
     3 C         -1.904167   -0.960771   -0.338498 C.3        1 UNL1     0.1174
     4 C         -2.791718   -2.019461   0.320701 C.3        1 UNL1     0.1456
     5 C         -2.64055   -2.045702   1.852636 C.3        1 UNL1     0.2326
     6 O         -1.275971   -2.265327   2.202718 O.3        1 UNL1     -0.3076
     7 O         -3.214497   -0.898394   2.505008 O.3        1 UNL1     -0.4605
     8 C         -3.724588   -1.113913   3.772638 C.ar        1 UNL1     0.1310
     9 C         -4.54195   -2.186316   4.145695 C.ar        1 UNL1     0.0226
     10 C         -4.995227   -2.326838   5.462773 C.ar        1 UNL1     0.1343
     11 C         -4.622229   -1.410425   6.445066 C.ar        1 UNL1     0.1007
     12 C         -3.84004   -0.312892   6.075762 C.ar        1 UNL1     0.1389
     13 C         -3.386578   -0.170384   4.750811 C.ar        1 UNL1     0.0229
     14 C         -5.003223   -1.556503   7.869025 C.2        1 UNL1     0.1740
     15 C         -4.333573   -0.609251   8.820777 C.3        1 UNL1     0.0520
     16 C         -4.262964   0.762937   8.164979 C.3        1 UNL1     0.1322
     17 O         -3.504264   0.705918   6.936894 O.3        1 UNL1     -0.4828
     18 C         -5.621578   1.456616   8.039666 C.ar        1 UNL1     -0.0067
     19 C         -5.999999   2.020282   6.803829 C.ar        1 UNL1     -0.0516
     20 C         -7.214644   2.702945   6.667555 C.ar        1 UNL1     -0.0198
     21 C         -8.054375   2.83486   7.759012 C.ar        1 UNL1     0.1169
     22 C         -7.724745   2.261856   8.980425 C.ar        1 UNL1     -0.0198
     23 C         -6.518657   1.563251   9.112174 C.ar        1 UNL1     -0.0516
     24 O         -9.211426   3.538956   7.598131 O.3        1 UNL1     -0.5068
     25 O         -5.752853   -2.437699   8.281377 O.2        1 UNL1     -0.2917
     26 O         -5.790531   -3.394566   5.761156 O.3        1 UNL1     -0.5058
     27 O         -0.227554   -0.191121   2.541973 O.3        1 UNL1     -0.3648
     28 O         0.266247   -1.953829   -0.567883 O.3        1 UNL1     -0.3841
     29 O         -2.460286   0.353378   -0.261843 O.3        1 UNL1     -0.3863
     30 O         -2.445356   -3.320356   -0.202171 O.3        1 UNL1     -0.3829
     31 H         0.626316   -1.842729   1.820111 H        1 UNL1     0.0937
     32 H         0.0   0.0   0.0 H        1 UNL1     0.0671
     33 H         -1.867108   -1.19983   -1.410504 H        1 UNL1     0.0649
     34 H         -3.841588   -1.839926   0.063911 H        1 UNL1     0.0683
     35 H         -3.196264   -2.94115   2.157977 H        1 UNL1     0.1085
     36 H         -4.821001   -2.962472   3.441541 H        1 UNL1     0.0691
     37 H         -2.779729   0.693616   4.488644 H        1 UNL1     0.0691
     38 H         -3.331603   -1.00037   9.027197 H        1 UNL1     0.0385
     39 H         -4.893838   -0.590088   9.761794 H        1 UNL1     0.0385
     40 H         -3.667545   1.407311   8.825871 H        1 UNL1     0.0789
     41 H         -5.354189   1.938328   5.934425 H        1 UNL1     0.0623
     42 H         -7.489734   3.143458   5.712418 H        1 UNL1     0.0654
     43 H         -8.381954   2.346203   9.837671 H        1 UNL1     0.0654
     44 H         -6.298003   1.119302   10.078127 H        1 UNL1     0.0623
     45 H         -8.984555   4.446408   7.337791 H        1 UNL1     0.2921
     46 H         -5.387207   -3.907773   6.479043 H        1 UNL1     0.2922
     47 H         0.516063   0.361996   2.264565 H        1 UNL1     0.2126
     48 H         1.199157   -1.88909   -0.286422 H        1 UNL1     0.2101
     49 H         -2.020654   0.93561   -0.901784 H        1 UNL1     0.2100
     50 H         -2.678369   -3.334704   -1.153598 H        1 UNL1     0.2102
@<TRIPOS>BOND
     1     1     2    1
     2     1     6    1
     3     2     3    1
     4     3     4    1
     5     3    29    1
     6     3    33    1
     7     4     5    1
     8     5     6    1
     9     5     7    1
    10     5    35    1
    11     7     8    1
    12     8     9   ar
    13     8    13   ar
    14     9    10   ar
    15     9    36    1
    16    10    11   ar
    17    10    26    1
    18    11    12   ar
    19    11    14    1
    20    12    13   ar
    21    12    17    1
    22    13    37    1
    23    14    15    1
    24    14    25    2
    25    15    16    1
    26    15    38    1
    27    15    39    1
    28    16    17    1
    29    16    18    1
    30    16    40    1
    31    18    19   ar
    32    18    23   ar
    33    19    20   ar
    34    19    41    1
    35    20    21   ar
    36    20    42    1
    37    21    22   ar
    38    21    24    1
    39    22    23   ar
    40    22    43    1
    41    23    44    1
    42    24    45    1
    43    26    46    1
    44    27    47    1
    45    28    48    1
    46    29    49    1
    47    30    50    1
    48     1    31    1
    49     1    27    1
    50     2    32    1
    51     2    28    1
    52     4    34    1
    53     4    30    1
