@<TRIPOS>MOLECULE
*****
 50 53 0 0 0
SMALL
GASTEIGER

@<TRIPOS>ATOM
     1 C         -0.326409   -1.366594   1.672328 C.3        1 UNL1     0.1889
     2 C         -0.462242   -0.979398   0.175141 C.3        1 UNL1     0.1342
     3 C         -1.905024   -0.954082   -0.352308 C.3        1 UNL1     0.1174
     4 C         -2.789444   -2.02771   0.28663 C.3        1 UNL1     0.1456
     5 C         -2.632199   -2.087997   1.816991 C.3        1 UNL1     0.2326
     6 O         -1.266138   -2.314585   2.156702 O.3        1 UNL1     -0.3076
     7 O         -3.204118   -0.955841   2.497031 O.3        1 UNL1     -0.4605
     8 C         -3.719711   -1.202346   3.756764 C.ar        1 UNL1     0.1310
     9 C         -4.542577   -2.280878   4.09876 C.ar        1 UNL1     0.0226
     10 C         -5.00125   -2.453926   5.410086 C.ar        1 UNL1     0.1343
     11 C         -4.628345   -1.564939   6.417302 C.ar        1 UNL1     0.1007
     12 C         -3.840568   -0.461245   6.079587 C.ar        1 UNL1     0.1389
     13 C         -3.381673   -0.286007   4.760444 C.ar        1 UNL1     0.0229
     14 C         -5.015152   -1.746617   7.835585 C.2        1 UNL1     0.1740
     15 C         -4.345367   -0.827178   8.81414 C.3        1 UNL1     0.0520
     16 C         -4.267043   0.561365   8.194649 C.3        1 UNL1     0.1322
     17 O         -3.504042   0.533411   6.968224 O.3        1 UNL1     -0.4828
     18 C         -5.622498   1.263445   8.082616 C.ar        1 UNL1     -0.0067
     19 C         -5.986672   1.876003   6.865914 C.ar        1 UNL1     -0.0516
     20 C         -7.198081   2.567075   6.74397 C.ar        1 UNL1     -0.0198
     21 C         -8.048705   2.658823   7.831098 C.ar        1 UNL1     0.1169
     22 C         -7.733194   2.037642   9.032525 C.ar        1 UNL1     -0.0198
     23 C         -6.530336   1.330843   9.149237 C.ar        1 UNL1     -0.0516
     24 O         -9.202214   3.372099   7.685995 O.3        1 UNL1     -0.5068
     25 O         -5.769694   -2.635301   8.222098 O.2        1 UNL1     -0.2917
     26 O         -5.801765   -3.525923   5.677635 O.3        1 UNL1     -0.5058
     27 O         -0.217396   -0.247852   2.53796 O.3        1 UNL1     -0.3648
     28 O         0.264947   -1.940535   -0.612334 O.3        1 UNL1     -0.3841
     29 O         -2.461475   0.357712   -0.24419 O.3        1 UNL1     -0.3863
     30 O         -2.444523   -3.316431   -0.266469 O.3        1 UNL1     -0.3829
     31 H         0.634413   -1.882472   1.776104 H        1 UNL1     0.0937
     32 H         0.0   0.0   0.0 H        1 UNL1     0.0671
     33 H         -1.872094   -1.169172   -1.429514 H        1 UNL1     0.0649
     34 H         -3.84041   -1.8431   0.038051 H        1 UNL1     0.0683
     35 H         -3.186265   -2.990346   2.104491 H        1 UNL1     0.1085
     36 H         -4.822022   -3.037285   3.373585 H        1 UNL1     0.0691
     37 H         -2.770531   0.582133   4.523103 H        1 UNL1     0.0691
     38 H         -3.345683   -1.22751   9.013873 H        1 UNL1     0.0385
     39 H         -4.909023   -0.830361   9.753321 H        1 UNL1     0.0385
     40 H         -3.671584   1.185914   8.874272 H        1 UNL1     0.0789
     41 H         -5.332123   1.826095   6.000624 H        1 UNL1     0.0623
     42 H         -7.462149   3.045319   5.80399 H        1 UNL1     0.0654
     43 H         -8.399009   2.09045   9.885645 H        1 UNL1     0.0654
     44 H         -6.320822   0.848906   10.099335 H        1 UNL1     0.0623
     45 H         -8.969972   4.295082   7.493946 H        1 UNL1     0.2921
     46 H         -5.403768   -4.058523   6.38428 H        1 UNL1     0.2922
     47 H         0.511942   0.322551   2.257665 H        1 UNL1     0.2126
     48 H         1.205181   -1.851822   -0.363695 H        1 UNL1     0.2101
     49 H         -2.030533   0.952311   -0.878646 H        1 UNL1     0.2100
     50 H         -2.686507   -3.311661   -1.215749 H        1 UNL1     0.2102
@<TRIPOS>BOND
     1     1     2    1
     2     1     6    1
     3     2     3    1
     4     3     4    1
     5     3    29    1
     6     3    33    1
     7     4     5    1
     8     5     6    1
     9     5     7    1
    10     5    35    1
    11     7     8    1
    12     8     9   ar
    13     8    13   ar
    14     9    10   ar
    15     9    36    1
    16    10    11   ar
    17    10    26    1
    18    11    12   ar
    19    11    14    1
    20    12    13   ar
    21    12    17    1
    22    13    37    1
    23    14    15    1
    24    14    25    2
    25    15    16    1
    26    15    38    1
    27    15    39    1
    28    16    17    1
    29    16    18    1
    30    16    40    1
    31    18    19   ar
    32    18    23   ar
    33    19    20   ar
    34    19    41    1
    35    20    21   ar
    36    20    42    1
    37    21    22   ar
    38    21    24    1
    39    22    23   ar
    40    22    43    1
    41    23    44    1
    42    24    45    1
    43    26    46    1
    44    27    47    1
    45    28    48    1
    46    29    49    1
    47    30    50    1
    48     1    31    1
    49     1    27    1
    50     2    32    1
    51     2    28    1
    52     4    34    1
    53     4    30    1
