@<TRIPOS>MOLECULE
*****
 50 53 0 0 0
SMALL
GASTEIGER

@<TRIPOS>ATOM
     1 C         -2.04366   0.434826   -0.636541 C.3        1 UNL1     0.1889
     2 C         -0.531217   0.242341   -0.928785 C.3        1 UNL1     0.1342
     3 C         0.151058   1.445935   -1.596862 C.3        1 UNL1     0.1174
     4 C         -0.770572   2.186158   -2.569377 C.3        1 UNL1     0.1456
     5 C         -2.167327   2.446645   -1.976431 C.3        1 UNL1     0.2326
     6 O         -2.764469   1.214248   -1.579584 O.3        1 UNL1     -0.3076
     7 O         -2.171596   3.439017   -0.934078 O.3        1 UNL1     -0.4605
     8 C         -1.926469   2.974917   0.345787 C.ar        1 UNL1     0.1310
     9 C         -2.903555   2.5748   1.26367 C.ar        1 UNL1     0.0226
     10 C         -2.552957   2.101805   2.533812 C.ar        1 UNL1     0.1343
     11 C         -1.21432   1.99493   2.908602 C.ar        1 UNL1     0.1007
     12 C         -0.231298   2.429985   2.015753 C.ar        1 UNL1     0.1389
     13 C         -0.584196   2.908022   0.739675 C.ar        1 UNL1     0.0229
     14 C         -0.784408   1.423701   4.205917 C.2        1 UNL1     0.1740
     15 C         0.688828   1.178695   4.351165 C.3        1 UNL1     0.0520
     16 C         1.435798   2.347255   3.723103 C.3        1 UNL1     0.1322
     17 O         1.109342   2.470557   2.321215 O.3        1 UNL1     -0.4828
     18 C         1.321635   3.650256   4.51801 C.ar        1 UNL1     -0.0067
     19 C         0.638851   3.651308   5.751712 C.ar        1 UNL1     -0.0516
     20 C         0.47523   4.835002   6.481136 C.ar        1 UNL1     -0.0198
     21 C         0.982201   6.022798   5.985203 C.ar        1 UNL1     0.1169
     22 C         1.68834   6.047868   4.789554 C.ar        1 UNL1     -0.0198
     23 C         1.868105   4.861083   4.068941 C.ar        1 UNL1     -0.0516
     24 O         0.770583   7.16196   6.704876 O.3        1 UNL1     -0.5068
     25 O         -1.568257   1.088493   5.090055 O.2        1 UNL1     -0.2917
     26 O         -3.553968   1.728499   3.382462 O.3        1 UNL1     -0.5058
     27 O         -2.314846   0.841359   0.695366 O.3        1 UNL1     -0.3648
     28 O         -0.377223   -0.882892   -1.813568 O.3        1 UNL1     -0.3841
     29 O         0.729255   2.309741   -0.61622 O.3        1 UNL1     -0.3863
     30 O         -0.916387   1.402253   -3.773504 O.3        1 UNL1     -0.3829
     31 H         -2.506044   -0.555126   -0.715754 H        1 UNL1     0.0937
     32 H         0.0   0.0   0.0 H        1 UNL1     0.0671
     33 H         0.997108   1.066856   -2.186961 H        1 UNL1     0.0649
     34 H         -0.317754   3.140287   -2.860917 H        1 UNL1     0.0683
     35 H         -2.74942   2.823948   -2.826543 H        1 UNL1     0.1085
     36 H         -3.958539   2.581078   1.012495 H        1 UNL1     0.0691
     37 H         0.199963   3.241685   0.063468 H        1 UNL1     0.0691
     38 H         0.920653   0.23972   3.83725 H        1 UNL1     0.0385
     39 H         0.929351   1.056042   5.412713 H        1 UNL1     0.0385
     40 H         2.504168   2.092367   3.734819 H        1 UNL1     0.0789
     41 H         0.22368   2.733627   6.158092 H        1 UNL1     0.0623
     42 H         -0.063542   4.824946   7.4254 H        1 UNL1     0.0654
     43 H         2.102564   6.969887   4.399414 H        1 UNL1     0.0654
     44 H         2.434073   4.915636   3.143982 H        1 UNL1     0.0623
     45 H         -0.18628   7.317881   6.757967 H        1 UNL1     0.2921
     46 H         -3.268896   0.959178   3.90043 H        1 UNL1     0.2922
     47 H         -1.842757   0.27446   1.321158 H        1 UNL1     0.2126
     48 H         -0.5928   -1.680111   -1.292319 H        1 UNL1     0.2101
     49 H         0.036071   2.844871   -0.197977 H        1 UNL1     0.2100
     50 H         -0.305919   0.63855   -3.711864 H        1 UNL1     0.2102
@<TRIPOS>BOND
     1     1     2    1
     2     1     6    1
     3     2     3    1
     4     3     4    1
     5     3    29    1
     6     3    33    1
     7     4     5    1
     8     5     6    1
     9     5     7    1
    10     5    35    1
    11     7     8    1
    12     8     9   ar
    13     8    13   ar
    14     9    10   ar
    15     9    36    1
    16    10    11   ar
    17    10    26    1
    18    11    12   ar
    19    11    14    1
    20    12    13   ar
    21    12    17    1
    22    13    37    1
    23    14    15    1
    24    14    25    2
    25    15    16    1
    26    15    38    1
    27    15    39    1
    28    16    17    1
    29    16    18    1
    30    16    40    1
    31    18    19   ar
    32    18    23   ar
    33    19    20   ar
    34    19    41    1
    35    20    21   ar
    36    20    42    1
    37    21    22   ar
    38    21    24    1
    39    22    23   ar
    40    22    43    1
    41    23    44    1
    42    24    45    1
    43    26    46    1
    44    27    47    1
    45    28    48    1
    46    29    49    1
    47    30    50    1
    48     1    31    1
    49     1    27    1
    50     2    32    1
    51     2    28    1
    52     4    34    1
    53     4    30    1
