@<TRIPOS>MOLECULE
*****
 50 53 0 0 0
SMALL
GASTEIGER

@<TRIPOS>ATOM
     1 C         0.616756   0.435119   -2.049656 C.3        1 UNL1     0.1889
     2 C         -0.368195   0.575998   -0.858033 C.3        1 UNL1     0.1342
     3 C         -1.811839   0.149589   -1.165494 C.3        1 UNL1     0.1174
     4 C         -2.232378   0.470645   -2.601874 C.3        1 UNL1     0.1456
     5 C         -1.171053   0.05123   -3.635336 C.3        1 UNL1     0.2326
     6 O         0.07275   0.681612   -3.337946 O.3        1 UNL1     -0.3076
     7 O         -1.05879   -1.374646   -3.795324 O.3        1 UNL1     -0.4605
     8 C         -1.815446   -1.93222   -4.810267 C.ar        1 UNL1     0.1310
     9 C         -1.310514   -2.673936   -5.883674 C.ar        1 UNL1     0.0226
     10 C         -2.162341   -3.213416   -6.854887 C.ar        1 UNL1     0.1343
     11 C         -3.543212   -3.044232   -6.763164 C.ar        1 UNL1     0.1007
     12 C         -4.056005   -2.270826   -5.718333 C.ar        1 UNL1     0.1389
     13 C         -3.199073   -1.726262   -4.743372 C.ar        1 UNL1     0.0229
     14 C         -4.495272   -3.662713   -7.714593 C.2        1 UNL1     0.1740
     15 C         -5.944759   -3.563452   -7.339516 C.3        1 UNL1     0.0520
     16 C         -6.199926   -2.176742   -6.765162 C.3        1 UNL1     0.1322
     17 O         -5.387736   -1.950167   -5.592096 O.3        1 UNL1     -0.4828
     18 C         -6.136166   -1.057079   -7.806801 C.ar        1 UNL1     -0.0067
     19 C         -6.160976   -1.384641   -9.178042 C.ar        1 UNL1     -0.0516
     20 C         -6.056623   -0.388769   -10.156465 C.ar        1 UNL1     -0.0198
     21 C         -5.919922   0.934643   -9.777361 C.ar        1 UNL1     0.1169
     22 C         -5.925869   1.291867   -8.435275 C.ar        1 UNL1     -0.0198
     23 C         -6.048761   0.298029   -7.456889 C.ar        1 UNL1     -0.0516
     24 O         -5.782869   1.872993   -10.757727 O.3        1 UNL1     -0.5068
     25 O         -4.144405   -4.291075   -8.709851 O.2        1 UNL1     -0.2917
     26 O         -1.606366   -3.925892   -7.877067 O.3        1 UNL1     -0.5058
     27 O         1.371009   -0.766153   -2.020712 O.3        1 UNL1     -0.3648
     28 O         -0.405794   1.958587   -0.458359 O.3        1 UNL1     -0.3841
     29 O         -2.019707   -1.221721   -0.821356 O.3        1 UNL1     -0.3863
     30 O         -2.461212   1.891511   -2.722137 O.3        1 UNL1     -0.3829
     31 H         1.365218   1.226358   -1.932084 H        1 UNL1     0.0937
     32 H         0.0   0.0   0.0 H        1 UNL1     0.0671
     33 H         -2.478265   0.720646   -0.504063 H        1 UNL1     0.0649
     34 H         -3.180151   -0.02747   -2.834271 H        1 UNL1     0.0683
     35 H         -1.531827   0.485506   -4.576147 H        1 UNL1     0.1085
     36 H         -0.251833   -2.8881   -5.980877 H        1 UNL1     0.0691
     37 H         -3.623141   -1.126974   -3.940556 H        1 UNL1     0.0691
     38 H         -6.148767   -4.342193   -6.596907 H        1 UNL1     0.0385
     39 H         -6.558947   -3.764784   -8.223834 H        1 UNL1     0.0385
     40 H         -7.232386   -2.166546   -6.390405 H        1 UNL1     0.0789
     41 H         -6.258195   -2.416963   -9.501324 H        1 UNL1     0.0623
     42 H         -6.065056   -0.655236   -11.210474 H        1 UNL1     0.0654
     43 H         -5.834514   2.326703   -8.127574 H        1 UNL1     0.0654
     44 H         -6.060297   0.614074   -6.418223 H        1 UNL1     0.0623
     45 H         -4.96861   1.68386   -11.251617 H        1 UNL1     0.2921
     46 H         -1.05189   -3.339694   -8.415899 H        1 UNL1     0.2922
     47 H         2.134972   -0.696098   -2.610045 H        1 UNL1     0.2126
     48 H         0.456565   2.153342   -0.043459 H        1 UNL1     0.2101
     49 H         -2.330067   -1.288435   0.095716 H        1 UNL1     0.2100
     50 H         -2.391186   2.284951   -1.827702 H        1 UNL1     0.2102
@<TRIPOS>BOND
     1     1     2    1
     2     1     6    1
     3     2     3    1
     4     3     4    1
     5     3    29    1
     6     3    33    1
     7     4     5    1
     8     5     6    1
     9     5     7    1
    10     5    35    1
    11     7     8    1
    12     8     9   ar
    13     8    13   ar
    14     9    10   ar
    15     9    36    1
    16    10    11   ar
    17    10    26    1
    18    11    12   ar
    19    11    14    1
    20    12    13   ar
    21    12    17    1
    22    13    37    1
    23    14    15    1
    24    14    25    2
    25    15    16    1
    26    15    38    1
    27    15    39    1
    28    16    17    1
    29    16    18    1
    30    16    40    1
    31    18    19   ar
    32    18    23   ar
    33    19    20   ar
    34    19    41    1
    35    20    21   ar
    36    20    42    1
    37    21    22   ar
    38    21    24    1
    39    22    23   ar
    40    22    43    1
    41    23    44    1
    42    24    45    1
    43    26    46    1
    44    27    47    1
    45    28    48    1
    46    29    49    1
    47    30    50    1
    48     1    31    1
    49     1    27    1
    50     2    32    1
    51     2    28    1
    52     4    34    1
    53     4    30    1
