@<TRIPOS>MOLECULE
*****
 50 53 0 0 0
SMALL
GASTEIGER

@<TRIPOS>ATOM
     1 C         -1.017814   -1.501968   -1.216121 C.3        1 UNL1     0.1889
     2 C         0.007226   -1.08984   -0.125532 C.3        1 UNL1     0.1342
     3 C         1.447508   -1.554137   -0.39101 C.3        1 UNL1     0.1174
     4 C         1.513348   -2.916234   -1.086334 C.3        1 UNL1     0.1456
     5 C         0.541858   -3.019029   -2.276294 C.3        1 UNL1     0.2326
     6 O         -0.790112   -2.75689   -1.840395 O.3        1 UNL1     -0.3076
     7 O         0.934523   -2.220563   -3.407482 O.3        1 UNL1     -0.4605
     8 C         1.247851   -0.900407   -3.138148 C.ar        1 UNL1     0.1310
     9 C         2.386352   -0.461106   -2.453947 C.ar        1 UNL1     0.0226
     10 C         2.624103   0.902657   -2.245309 C.ar        1 UNL1     0.1343
     11 C         1.740265   1.862245   -2.737104 C.ar        1 UNL1     0.1007
     12 C         0.579058   1.434241   -3.386099 C.ar        1 UNL1     0.1389
     13 C         0.338898   0.062832   -3.593444 C.ar        1 UNL1     0.0229
     14 C         1.984842   3.318358   -2.618487 C.2        1 UNL1     0.1740
     15 C         1.050584   4.199036   -3.395092 C.3        1 UNL1     0.0520
     16 C         -0.356312   3.628554   -3.280413 C.3        1 UNL1     0.1322
     17 O         -0.411024   2.287527   -3.814943 O.3        1 UNL1     -0.4828
     18 C         -0.971689   3.781785   -1.887375 C.ar        1 UNL1     -0.0067
     19 C         -2.323644   4.163379   -1.765653 C.ar        1 UNL1     -0.0516
     20 C         -2.904417   4.358483   -0.506844 C.ar        1 UNL1     -0.0198
     21 C         -2.143547   4.182718   0.635089 C.ar        1 UNL1     0.1169
     22 C         -0.81885   3.774656   0.54847 C.ar        1 UNL1     -0.0198
     23 C         -0.242982   3.561569   -0.709714 C.ar        1 UNL1     -0.0516
     24 O         -2.732768   4.418548   1.842402 O.3        1 UNL1     -0.5068
     25 O         2.93073   3.79673   -1.998049 O.2        1 UNL1     -0.2917
     26 O         3.752627   1.265054   -1.569524 O.3        1 UNL1     -0.5058
     27 O         -1.27094   -0.481438   -2.168608 O.3        1 UNL1     -0.3648
     28 O         -0.404301   -1.665731   1.128143 O.3        1 UNL1     -0.3841
     29 O         2.18677   -0.544305   -1.080839 O.3        1 UNL1     -0.3863
     30 O         1.189919   -3.951198   -0.132429 O.3        1 UNL1     -0.3829
     31 H         -1.977933   -1.63974   -0.706937 H        1 UNL1     0.0937
     32 H         0.0   0.0   0.0 H        1 UNL1     0.0671
     33 H         1.947354   -1.668991   0.580938 H        1 UNL1     0.0649
     34 H         2.533944   -3.109215   -1.434964 H        1 UNL1     0.0683
     35 H         0.582032   -4.078212   -2.559836 H        1 UNL1     0.1085
     36 H         3.139476   -1.154491   -2.09598 H        1 UNL1     0.0691
     37 H         -0.573166   -0.244499   -4.100574 H        1 UNL1     0.0691
     38 H         1.390418   4.205702   -4.436243 H        1 UNL1     0.0385
     39 H         1.11567   5.221438   -3.00749 H        1 UNL1     0.0385
     40 H         -0.999646   4.216907   -3.948608 H        1 UNL1     0.0789
     41 H         -2.939557   4.316567   -2.647035 H        1 UNL1     0.0623
     42 H         -3.944634   4.664248   -0.426423 H        1 UNL1     0.0654
     43 H         -0.218173   3.619501   1.436741 H        1 UNL1     0.0654
     44 H         0.791393   3.232922   -0.73979 H        1 UNL1     0.0623
     45 H         -2.993847   5.35301   1.878936 H        1 UNL1     0.2921
     46 H         4.401697   0.54525   -1.614257 H        1 UNL1     0.2922
     47 H         -1.093529   -0.806204   -3.062427 H        1 UNL1     0.2126
     48 H         0.045617   -2.529507   1.200233 H        1 UNL1     0.2101
     49 H         1.585592   0.152631   -1.388505 H        1 UNL1     0.2100
     50 H         0.256735   -3.829467   0.139717 H        1 UNL1     0.2102
@<TRIPOS>BOND
     1     1     2    1
     2     1     6    1
     3     2     3    1
     4     3     4    1
     5     3    29    1
     6     3    33    1
     7     4     5    1
     8     5     6    1
     9     5     7    1
    10     5    35    1
    11     7     8    1
    12     8     9   ar
    13     8    13   ar
    14     9    10   ar
    15     9    36    1
    16    10    11   ar
    17    10    26    1
    18    11    12   ar
    19    11    14    1
    20    12    13   ar
    21    12    17    1
    22    13    37    1
    23    14    15    1
    24    14    25    2
    25    15    16    1
    26    15    38    1
    27    15    39    1
    28    16    17    1
    29    16    18    1
    30    16    40    1
    31    18    19   ar
    32    18    23   ar
    33    19    20   ar
    34    19    41    1
    35    20    21   ar
    36    20    42    1
    37    21    22   ar
    38    21    24    1
    39    22    23   ar
    40    22    43    1
    41    23    44    1
    42    24    45    1
    43    26    46    1
    44    27    47    1
    45    28    48    1
    46    29    49    1
    47    30    50    1
    48     1    31    1
    49     1    27    1
    50     2    32    1
    51     2    28    1
    52     4    34    1
    53     4    30    1
