@<TRIPOS>MOLECULE
*****
 50 53 0 0 0
SMALL
GASTEIGER

@<TRIPOS>ATOM
     1 C         -1.82216   -0.449098   1.117519 C.3        1 UNL1     0.1889
     2 C         -0.389478   0.140016   1.016004 C.3        1 UNL1     0.1342
     3 C         0.61555   -0.440941   2.02242 C.3        1 UNL1     0.1174
     4 C         -0.023712   -0.779372   3.371466 C.3        1 UNL1     0.1456
     5 C         -1.348098   -1.549776   3.220324 C.3        1 UNL1     0.2326
     6 O         -2.259658   -0.79762   2.422709 O.3        1 UNL1     -0.3076
     7 O         -1.175194   -2.902044   2.759026 O.3        1 UNL1     -0.4605
     8 C         -1.563712   -3.896827   3.638224 C.ar        1 UNL1     0.1310
     9 C         -2.249589   -5.064948   3.288414 C.ar        1 UNL1     0.0226
     10 C         -2.584616   -6.023615   4.252062 C.ar        1 UNL1     0.1343
     11 C         -2.220545   -5.848377   5.586447 C.ar        1 UNL1     0.1007
     12 C         -1.571564   -4.666871   5.954755 C.ar        1 UNL1     0.1389
     13 C         -1.237145   -3.701869   4.986061 C.ar        1 UNL1     0.0229
     14 C         -2.474995   -6.867267   6.631087 C.2        1 UNL1     0.1740
     15 C         -1.821536   -6.614038   7.957893 C.3        1 UNL1     0.0520
     16 C         -1.926103   -5.127684   8.270581 C.3        1 UNL1     0.1322
     17 O         -1.2631   -4.342229   7.255418 O.3        1 UNL1     -0.4828
     18 C         -3.347335   -4.666272   8.60213 C.ar        1 UNL1     -0.0067
     19 C         -3.726188   -3.336684   8.324857 C.ar        1 UNL1     -0.0516
     20 C         -5.002772   -2.868998   8.658873 C.ar        1 UNL1     -0.0198
     21 C         -5.905059   -3.717021   9.275769 C.ar        1 UNL1     0.1169
     22 C         -5.572833   -5.041087   9.531334 C.ar        1 UNL1     -0.0198
     23 C         -4.30269   -5.514195   9.180677 C.ar        1 UNL1     -0.0516
     24 O         -7.125735   -3.215583   9.620604 O.3        1 UNL1     -0.5068
     25 O         -3.107806   -7.900165   6.428216 O.2        1 UNL1     -0.2917
     26 O         -3.254817   -7.140413   3.845641 O.3        1 UNL1     -0.5058
     27 O         -2.07307   -1.489218   0.185863 O.3        1 UNL1     -0.3648
     28 O         -0.461649   1.558263   1.252807 O.3        1 UNL1     -0.3841
     29 O         1.323154   -1.544197   1.452985 O.3        1 UNL1     -0.3863
     30 O         -0.278527   0.444141   4.095189 O.3        1 UNL1     -0.3829
     31 H         -2.510654   0.349926   0.821519 H        1 UNL1     0.0937
     32 H         0.0   0.0   0.0 H        1 UNL1     0.0671
     33 H         1.378186   0.32636   2.215694 H        1 UNL1     0.0649
     34 H         0.671786   -1.371034   3.976956 H        1 UNL1     0.0683
     35 H         -1.758355   -1.572728   4.237694 H        1 UNL1     0.1085
     36 H         -2.511409   -5.286023   2.259484 H        1 UNL1     0.0691
     37 H         -0.732878   -2.790036   5.298739 H        1 UNL1     0.0691
     38 H         -0.775386   -6.928002   7.877121 H        1 UNL1     0.0385
     39 H         -2.306412   -7.232738   8.720707 H        1 UNL1     0.0385
     40 H         -1.341646   -4.946914   9.18286 H        1 UNL1     0.0789
     41 H         -3.033015   -2.648735   7.849579 H        1 UNL1     0.0623
     42 H         -5.27889   -1.838253   8.450699 H        1 UNL1     0.0654
     43 H         -6.276988   -5.717909   10.000363 H        1 UNL1     0.0654
     44 H         -4.080725   -6.557101   9.385431 H        1 UNL1     0.0623
     45 H         -7.549855   -3.836335   10.23502 H        1 UNL1     0.2921
     46 H         -3.361278   -7.120876   2.881433 H        1 UNL1     0.2922
     47 H         -2.094467   -1.134726   -0.713991 H        1 UNL1     0.2126
     48 H         -0.255385   1.694937   2.197533 H        1 UNL1     0.2101
     49 H         2.209907   -1.604061   1.8427 H        1 UNL1     0.2100
     50 H         0.159864   1.176097   3.613767 H        1 UNL1     0.2102
@<TRIPOS>BOND
     1     1     2    1
     2     1     6    1
     3     2     3    1
     4     3     4    1
     5     3    29    1
     6     3    33    1
     7     4     5    1
     8     5     6    1
     9     5     7    1
    10     5    35    1
    11     7     8    1
    12     8     9   ar
    13     8    13   ar
    14     9    10   ar
    15     9    36    1
    16    10    11   ar
    17    10    26    1
    18    11    12   ar
    19    11    14    1
    20    12    13   ar
    21    12    17    1
    22    13    37    1
    23    14    15    1
    24    14    25    2
    25    15    16    1
    26    15    38    1
    27    15    39    1
    28    16    17    1
    29    16    18    1
    30    16    40    1
    31    18    19   ar
    32    18    23   ar
    33    19    20   ar
    34    19    41    1
    35    20    21   ar
    36    20    42    1
    37    21    22   ar
    38    21    24    1
    39    22    23   ar
    40    22    43    1
    41    23    44    1
    42    24    45    1
    43    26    46    1
    44    27    47    1
    45    28    48    1
    46    29    49    1
    47    30    50    1
    48     1    31    1
    49     1    27    1
    50     2    32    1
    51     2    28    1
    52     4    34    1
    53     4    30    1
