@<TRIPOS>MOLECULE
*****
 50 53 0 0 0
SMALL
GASTEIGER

@<TRIPOS>ATOM
     1 C         1.41395   0.471256   1.596706 C.3        1 UNL1     0.1889
     2 C         -0.025504   0.405234   1.019165 C.3        1 UNL1     0.1342
     3 C         -0.773441   1.747207   1.006266 C.3        1 UNL1     0.1174
     4 C         -0.425393   2.632194   2.205757 C.3        1 UNL1     0.1456
     5 C         1.090641   2.707927   2.463188 C.3        1 UNL1     0.2326
     6 O         1.617319   1.396828   2.654228 O.3        1 UNL1     -0.3076
     7 O         1.803883   3.464839   1.468355 O.3        1 UNL1     -0.4605
     8 C         2.92238   4.147039   1.912308 C.ar        1 UNL1     0.1310
     9 C         2.923226   5.162556   2.87461 C.ar        1 UNL1     0.0226
     10 C         4.113969   5.782887   3.271126 C.ar        1 UNL1     0.1343
     11 C         5.336786   5.385888   2.731728 C.ar        1 UNL1     0.1007
     12 C         5.344166   4.401289   1.740116 C.ar        1 UNL1     0.1389
     13 C         4.146455   3.779543   1.339678 C.ar        1 UNL1     0.0229
     14 C         6.633255   5.948707   3.175074 C.2        1 UNL1     0.1740
     15 C         7.855762   5.252418   2.653338 C.3        1 UNL1     0.0520
     16 C         7.61709   4.888271   1.194438 C.3        1 UNL1     0.1322
     17 O         6.477111   4.01035   1.064935 O.3        1 UNL1     -0.4828
     18 C         7.598501   6.095122   0.253221 C.ar        1 UNL1     -0.0067
     19 C         7.57729   5.885745   -1.141026 C.ar        1 UNL1     -0.0516
     20 C         7.607668   6.966626   -2.030259 C.ar        1 UNL1     -0.0198
     21 C         7.666612   8.258515   -1.53896 C.ar        1 UNL1     0.1169
     22 C         7.654931   8.497958   -0.17098 C.ar        1 UNL1     -0.0198
     23 C         7.605924   7.417936   0.718518 C.ar        1 UNL1     -0.0516
     24 O         7.733171   9.284425   -2.435331 O.3        1 UNL1     -0.5068
     25 O         6.72993   6.871967   3.979269 O.2        1 UNL1     -0.2917
     26 O         4.046133   6.767328   4.213389 O.3        1 UNL1     -0.5058
     27 O         2.418003   0.584958   0.600847 O.3        1 UNL1     -0.3648
     28 O         -0.797383   -0.507692   1.821333 O.3        1 UNL1     -0.3841
     29 O         -0.595161   2.415049   -0.244468 O.3        1 UNL1     -0.3863
     30 O         -1.070782   2.106081   3.385743 O.3        1 UNL1     -0.3829
     31 H         1.607791   -0.499722   2.065433 H        1 UNL1     0.0937
     32 H         0.0   0.0   -0.0 H        1 UNL1     0.0671
     33 H         -1.849191   1.532197   1.071481 H        1 UNL1     0.0649
     34 H         -0.816806   3.643648   2.050334 H        1 UNL1     0.0683
     35 H         1.169744   3.226942   3.426642 H        1 UNL1     0.1085
     36 H         2.012452   5.477564   3.371985 H        1 UNL1     0.0691
     37 H         4.179   3.016508   0.564945 H        1 UNL1     0.0691
     38 H         8.01238   4.35649   3.263511 H        1 UNL1     0.0385
     39 H         8.72384   5.908356   2.779693 H        1 UNL1     0.0385
     40 H         8.471163   4.279052   0.868968 H        1 UNL1     0.0789
     41 H         7.540368   4.880974   -1.551785 H        1 UNL1     0.0623
     42 H         7.602891   6.791755   -3.103296 H        1 UNL1     0.0654
     43 H         7.685654   9.506199   0.224515 H        1 UNL1     0.0654
     44 H         7.587508   7.642167   1.780698 H        1 UNL1     0.0623
     45 H         8.046153   8.930678   -3.283637 H        1 UNL1     0.2921
     46 H         4.750345   6.637565   4.86811 H        1 UNL1     0.2922
     47 H         3.275635   0.767709   1.009417 H        1 UNL1     0.2126
     48 H         -1.065001   -1.23963   1.232793 H        1 UNL1     0.2101
     49 H         0.107055   3.080303   -0.166212 H        1 UNL1     0.2100
     50 H         -1.151847   1.135777   3.277797 H        1 UNL1     0.2102
@<TRIPOS>BOND
     1     1     2    1
     2     1     6    1
     3     2     3    1
     4     3     4    1
     5     3    29    1
     6     3    33    1
     7     4     5    1
     8     5     6    1
     9     5     7    1
    10     5    35    1
    11     7     8    1
    12     8     9   ar
    13     8    13   ar
    14     9    10   ar
    15     9    36    1
    16    10    11   ar
    17    10    26    1
    18    11    12   ar
    19    11    14    1
    20    12    13   ar
    21    12    17    1
    22    13    37    1
    23    14    15    1
    24    14    25    2
    25    15    16    1
    26    15    38    1
    27    15    39    1
    28    16    17    1
    29    16    18    1
    30    16    40    1
    31    18    19   ar
    32    18    23   ar
    33    19    20   ar
    34    19    41    1
    35    20    21   ar
    36    20    42    1
    37    21    22   ar
    38    21    24    1
    39    22    23   ar
    40    22    43    1
    41    23    44    1
    42    24    45    1
    43    26    46    1
    44    27    47    1
    45    28    48    1
    46    29    49    1
    47    30    50    1
    48     1    31    1
    49     1    27    1
    50     2    32    1
    51     2    28    1
    52     4    34    1
    53     4    30    1
