@<TRIPOS>MOLECULE
*****
 50 53 0 0 0
SMALL
GASTEIGER

@<TRIPOS>ATOM
     1 C         -0.440164   -1.630136   1.385539 C.3        1 UNL1     0.1889
     2 C         0.241707   -1.064357   0.110828 C.3        1 UNL1     0.1342
     3 C         -0.120088   -1.798414   -1.189452 C.3        1 UNL1     0.1174
     4 C         -0.326899   -3.30123   -0.984776 C.3        1 UNL1     0.1456
     5 C         -1.2127   -3.614393   0.234917 C.3        1 UNL1     0.2326
     6 O         -0.646797   -3.034836   1.408261 O.3        1 UNL1     -0.3076
     7 O         -2.596108   -3.267039   0.042963 O.3        1 UNL1     -0.4605
     8 C         -3.370994   -3.209004   1.18739 C.ar        1 UNL1     0.1310
     9 C         -4.630551   -3.797499   1.343879 C.ar        1 UNL1     0.0226
     10 C         -5.331459   -3.69675   2.551555 C.ar        1 UNL1     0.1343
     11 C         -4.778799   -3.024612   3.640884 C.ar        1 UNL1     0.1007
     12 C         -3.539737   -2.397879   3.483679 C.ar        1 UNL1     0.1389
     13 C         -2.836352   -2.497079   2.268427 C.ar        1 UNL1     0.0229
     14 C         -5.438188   -2.959072   4.965673 C.2        1 UNL1     0.1740
     15 C         -4.605719   -2.392134   6.077935 C.3        1 UNL1     0.0520
     16 C         -3.818229   -1.207728   5.534797 C.3        1 UNL1     0.1322
     17 O         -2.952445   -1.619758   4.454186 O.3        1 UNL1     -0.4828
     18 C         -4.682753   0.016364   5.223477 C.ar        1 UNL1     -0.0067
     19 C         -4.440851   1.226591   5.905422 C.ar        1 UNL1     -0.0516
     20 C         -5.243107   2.351375   5.679125 C.ar        1 UNL1     -0.0198
     21 C         -6.292567   2.276763   4.780853 C.ar        1 UNL1     0.1169
     22 C         -6.53502   1.108959   4.069313 C.ar        1 UNL1     -0.0198
     23 C         -5.721459   -0.010428   4.281794 C.ar        1 UNL1     -0.0516
     24 O         -7.075712   3.381037   4.614522 O.3        1 UNL1     -0.5068
     25 O         -6.56103   -3.405905   5.184876 O.2        1 UNL1     -0.2917
     26 O         -6.555929   -4.292281   2.638734 O.3        1 UNL1     -0.5058
     27 O         -1.61071   -0.922412   1.762017 O.3        1 UNL1     -0.3648
     28 O         1.66863   -1.162223   0.275206 O.3        1 UNL1     -0.3841
     29 O         -1.229487   -1.169907   -1.8347 O.3        1 UNL1     -0.3863
     30 O         0.95746   -3.935432   -0.800658 O.3        1 UNL1     -0.3829
     31 H         0.255888   -1.460277   2.214236 H        1 UNL1     0.0937
     32 H         0.0   0.0   -0.0 H        1 UNL1     0.0671
     33 H         0.723836   -1.685477   -1.88426 H        1 UNL1     0.0649
     34 H         -0.776648   -3.742352   -1.881178 H        1 UNL1     0.0683
     35 H         -1.133482   -4.703005   0.34684 H        1 UNL1     0.1085
     36 H         -5.089597   -4.380823   0.553227 H        1 UNL1     0.0691
     37 H         -1.873979   -1.999202   2.171213 H        1 UNL1     0.0691
     38 H         -3.935801   -3.184966   6.427441 H        1 UNL1     0.0385
     39 H         -5.261423   -2.107768   6.907974 H        1 UNL1     0.0385
     40 H         -3.131502   -0.88417   6.328671 H        1 UNL1     0.0789
     41 H         -3.628964   1.308081   6.622255 H        1 UNL1     0.0623
     42 H         -5.053862   3.275318   6.219982 H        1 UNL1     0.0654
     43 H         -7.344828   1.044176   3.352428 H        1 UNL1     0.0654
     44 H         -5.932992   -0.902946   3.700839 H        1 UNL1     0.0623
     45 H         -6.717439   4.096731   5.164193 H        1 UNL1     0.2921
     46 H         -7.248587   -3.613425   2.6106 H        1 UNL1     0.2922
     47 H         -1.374347   -0.081936   2.178661 H        1 UNL1     0.2126
     48 H         2.011277   -0.247924   0.294757 H        1 UNL1     0.2101
     49 H         -0.964705   -0.854249   -2.71336 H        1 UNL1     0.2100
     50 H         0.886109   -4.859038   -1.119363 H        1 UNL1     0.2102
@<TRIPOS>BOND
     1     1     2    1
     2     1     6    1
     3     2     3    1
     4     3     4    1
     5     3    29    1
     6     3    33    1
     7     4     5    1
     8     5     6    1
     9     5     7    1
    10     5    35    1
    11     7     8    1
    12     8     9   ar
    13     8    13   ar
    14     9    10   ar
    15     9    36    1
    16    10    11   ar
    17    10    26    1
    18    11    12   ar
    19    11    14    1
    20    12    13   ar
    21    12    17    1
    22    13    37    1
    23    14    15    1
    24    14    25    2
    25    15    16    1
    26    15    38    1
    27    15    39    1
    28    16    17    1
    29    16    18    1
    30    16    40    1
    31    18    19   ar
    32    18    23   ar
    33    19    20   ar
    34    19    41    1
    35    20    21   ar
    36    20    42    1
    37    21    22   ar
    38    21    24    1
    39    22    23   ar
    40    22    43    1
    41    23    44    1
    42    24    45    1
    43    26    46    1
    44    27    47    1
    45    28    48    1
    46    29    49    1
    47    30    50    1
    48     1    31    1
    49     1    27    1
    50     2    32    1
    51     2    28    1
    52     4    34    1
    53     4    30    1
