@<TRIPOS>MOLECULE
*****
 50 53 0 0 0
SMALL
GASTEIGER

@<TRIPOS>ATOM
     1 C         2.01444   0.64172   0.548661 C.3        1 UNL1     0.1889
     2 C         0.529776   0.348944   0.895063 C.3        1 UNL1     0.1342
     3 C         -0.234396   1.537537   1.498183 C.3        1 UNL1     0.1174
     4 C         0.644348   2.416048   2.392131 C.3        1 UNL1     0.1456
     5 C         2.00153   2.746011   1.744408 C.3        1 UNL1     0.2326
     6 O         2.689219   1.540952   1.416101 O.3        1 UNL1     -0.3076
     7 O         1.901151   3.659898   0.637134 O.3        1 UNL1     -0.4605
     8 C         1.401298   4.915796   0.931062 C.ar        1 UNL1     0.1310
     9 C         0.84924   5.301637   2.1573 C.ar        1 UNL1     0.0226
     10 C         0.384267   6.605966   2.363278 C.ar        1 UNL1     0.1343
     11 C         0.48199   7.563615   1.354714 C.ar        1 UNL1     0.1007
     12 C         0.993742   7.179237   0.112479 C.ar        1 UNL1     0.1389
     13 C         1.458771   5.866974   -0.095231 C.ar        1 UNL1     0.0229
     14 C         0.083648   8.977515   1.545407 C.2        1 UNL1     0.1740
     15 C         0.46302   9.9142   0.436242 C.3        1 UNL1     0.0520
     16 C         0.231677   9.206901   -0.891978 C.3        1 UNL1     0.1322
     17 O         1.036238   8.010444   -0.982763 O.3        1 UNL1     -0.4828
     18 C         -1.246657   9.004633   -1.233067 C.ar        1 UNL1     -0.0067
     19 C         -1.992002   8.03297   -0.534108 C.ar        1 UNL1     -0.0516
     20 C         -3.333184   7.789647   -0.853464 C.ar        1 UNL1     -0.0198
     21 C         -3.937023   8.504554   -1.872342 C.ar        1 UNL1     0.1169
     22 C         -3.238865   9.49124   -2.556348 C.ar        1 UNL1     -0.0198
     23 C         -1.903049   9.747611   -2.224797 C.ar        1 UNL1     -0.0516
     24 O         -5.233505   8.213714   -2.180479 O.3        1 UNL1     -0.5068
     25 O         -0.450372   9.397385   2.568646 O.2        1 UNL1     -0.2917
     26 O         -0.14417   6.917856   3.58191 O.3        1 UNL1     -0.5058
     27 O         2.221862   0.974318   -0.814842 O.3        1 UNL1     -0.3648
     28 O         0.488444   -0.720168   1.858388 O.3        1 UNL1     -0.3841
     29 O         -0.903181   2.28098   0.477324 O.3        1 UNL1     -0.3863
     30 O         0.880664   1.732883   3.642383 O.3        1 UNL1     -0.3829
     31 H         2.55838   -0.299737   0.682331 H        1 UNL1     0.0937
     32 H         -0.0   0.0   0.0 H        1 UNL1     0.0671
     33 H         -1.033177   1.133848   2.135917 H        1 UNL1     0.0649
     34 H         0.121049   3.348675   2.630387 H        1 UNL1     0.0683
     35 H         2.569155   3.227724   2.550407 H        1 UNL1     0.1085
     36 H         0.796481   4.619507   2.998749 H        1 UNL1     0.0691
     37 H         1.851713   5.592575   -1.071855 H        1 UNL1     0.0691
     38 H         1.519259   10.172377   0.567507 H        1 UNL1     0.0385
     39 H         -0.127138   10.832732   0.524506 H        1 UNL1     0.0385
     40 H         0.624796   9.862603   -1.680668 H        1 UNL1     0.0789
     41 H         -1.538319   7.452098   0.263645 H        1 UNL1     0.0623
     42 H         -3.893847   7.029444   -0.315171 H        1 UNL1     0.0654
     43 H         -3.706445   10.067433   -3.34583 H        1 UNL1     0.0654
     44 H         -1.391105   10.532858   -2.772652 H        1 UNL1     0.0623
     45 H         -5.811163   8.738261   -1.602658 H        1 UNL1     0.2921
     46 H         -0.131229   7.880398   3.703388 H        1 UNL1     0.2922
     47 H         3.127443   1.286937   -0.949199 H        1 UNL1     0.2126
     48 H         0.150944   -1.507032   1.388631 H        1 UNL1     0.2101
     49 H         -1.782717   2.549639   0.787216 H        1 UNL1     0.2100
     50 H         1.846986   1.724046   3.803181 H        1 UNL1     0.2102
@<TRIPOS>BOND
     1     1     2    1
     2     1     6    1
     3     2     3    1
     4     3     4    1
     5     3    29    1
     6     3    33    1
     7     4     5    1
     8     5     6    1
     9     5     7    1
    10     5    35    1
    11     7     8    1
    12     8     9   ar
    13     8    13   ar
    14     9    10   ar
    15     9    36    1
    16    10    11   ar
    17    10    26    1
    18    11    12   ar
    19    11    14    1
    20    12    13   ar
    21    12    17    1
    22    13    37    1
    23    14    15    1
    24    14    25    2
    25    15    16    1
    26    15    38    1
    27    15    39    1
    28    16    17    1
    29    16    18    1
    30    16    40    1
    31    18    19   ar
    32    18    23   ar
    33    19    20   ar
    34    19    41    1
    35    20    21   ar
    36    20    42    1
    37    21    22   ar
    38    21    24    1
    39    22    23   ar
    40    22    43    1
    41    23    44    1
    42    24    45    1
    43    26    46    1
    44    27    47    1
    45    28    48    1
    46    29    49    1
    47    30    50    1
    48     1    31    1
    49     1    27    1
    50     2    32    1
    51     2    28    1
    52     4    34    1
    53     4    30    1
