@<TRIPOS>MOLECULE
*****
 50 53 0 0 0
SMALL
GASTEIGER

@<TRIPOS>ATOM
     1 C         -0.35033   -1.338476   1.690134 C.3        1 UNL1     0.1889
     2 C         -0.471587   -0.972864   0.186284 C.3        1 UNL1     0.1342
     3 C         -1.91006   -0.943844   -0.352621 C.3        1 UNL1     0.1174
     4 C         -2.8081   -2.000498   0.295549 C.3        1 UNL1     0.1456
     5 C         -2.662999   -2.03892   1.827813 C.3        1 UNL1     0.2326
     6 O         -1.301468   -2.271399   2.181444 O.3        1 UNL1     -0.3076
     7 O         -3.230757   -0.892023   2.486296 O.3        1 UNL1     -0.4605
     8 C         -3.75453   -1.114491   3.747129 C.ar        1 UNL1     0.1310
     9 C         -3.785204   -2.348435   4.405718 C.ar        1 UNL1     0.0226
     10 C         -4.323366   -2.468837   5.692492 C.ar        1 UNL1     0.1343
     11 C         -4.822779   -1.35253   6.362035 C.ar        1 UNL1     0.1007
     12 C         -4.835027   -0.1227   5.698595 C.ar        1 UNL1     0.1389
     13 C         -4.296261   -0.002407   4.403724 C.ar        1 UNL1     0.0229
     14 C         -5.326034   -1.406847   7.754133 C.2        1 UNL1     0.1740
     15 C         -5.614408   -0.079877   8.392522 C.3        1 UNL1     0.0520
     16 C         -6.271811   0.82077   7.355886 C.3        1 UNL1     0.1322
     17 O         -5.399965   1.017614   6.220894 O.3        1 UNL1     -0.4828
     18 C         -7.69954   0.40411   6.994352 C.ar        1 UNL1     -0.0067
     19 C         -8.073542   0.318981   5.637485 C.ar        1 UNL1     -0.0516
     20 C         -9.383858   -0.012981   5.273017 C.ar        1 UNL1     -0.0198
     21 C         -10.329153   -0.254357   6.253824 C.ar        1 UNL1     0.1169
     22 C         -9.982928   -0.211012   7.598104 C.ar        1 UNL1     -0.0198
     23 C         -8.668128   0.102848   7.962585 C.ar        1 UNL1     -0.0516
     24 O         -11.60434   -0.537691   5.861371 O.3        1 UNL1     -0.5068
     25 O         -5.432828   -2.449593   8.394258 O.2        1 UNL1     -0.2917
     26 O         -4.324228   -3.700729   6.279029 O.3        1 UNL1     -0.5058
     27 O         -0.23872   -0.207698   2.539647 O.3        1 UNL1     -0.3648
     28 O         0.253653   -1.951649   -0.580992 O.3        1 UNL1     -0.3841
     29 O         -2.456526   0.373897   -0.268562 O.3        1 UNL1     -0.3863
     30 O         -2.469575   -3.30018   -0.235408 O.3        1 UNL1     -0.3829
     31 H         0.605407   -1.860489   1.809085 H        1 UNL1     0.0937
     32 H         0.0   0.0   0.0 H        1 UNL1     0.0671
     33 H         -1.870704   -1.175449   -1.426181 H        1 UNL1     0.0649
     34 H         -3.855593   -1.811163   0.036104 H        1 UNL1     0.0683
     35 H         -3.226626   -2.932305   2.124571 H        1 UNL1     0.1085
     36 H         -3.361975   -3.242616   3.961377 H        1 UNL1     0.0691
     37 H         -4.318769   0.96594   3.908456 H        1 UNL1     0.0691
     38 H         -4.660815   0.338747   8.731551 H        1 UNL1     0.0385
     39 H         -6.251336   -0.234613   9.270108 H        1 UNL1     0.0385
     40 H         -6.365439   1.818162   7.8064 H        1 UNL1     0.0789
     41 H         -7.352352   0.512822   4.84884 H        1 UNL1     0.0623
     42 H         -9.662894   -0.063786   4.22346 H        1 UNL1     0.0654
     43 H         -10.711599   -0.413035   8.374078 H        1 UNL1     0.0654
     44 H         -8.430158   0.117433   9.021831 H        1 UNL1     0.0623
     45 H         -11.956093   0.230862   5.383549 H        1 UNL1     0.2921
     46 H         -3.857466   -3.654957   7.128411 H        1 UNL1     0.2922
     47 H         0.50422   0.346776   2.263139 H        1 UNL1     0.2126
     48 H         1.192666   -1.866803   -0.326457 H        1 UNL1     0.2101
     49 H         -2.015904   0.955331   -0.908547 H        1 UNL1     0.2100
     50 H         -2.704286   -3.307799   -1.186495 H        1 UNL1     0.2102
@<TRIPOS>BOND
     1     1     2    1
     2     1     6    1
     3     2     3    1
     4     3     4    1
     5     3    29    1
     6     3    33    1
     7     4     5    1
     8     5     6    1
     9     5     7    1
    10     5    35    1
    11     7     8    1
    12     8     9   ar
    13     8    13   ar
    14     9    10   ar
    15     9    36    1
    16    10    11   ar
    17    10    26    1
    18    11    12   ar
    19    11    14    1
    20    12    13   ar
    21    12    17    1
    22    13    37    1
    23    14    15    1
    24    14    25    2
    25    15    16    1
    26    15    38    1
    27    15    39    1
    28    16    17    1
    29    16    18    1
    30    16    40    1
    31    18    19   ar
    32    18    23   ar
    33    19    20   ar
    34    19    41    1
    35    20    21   ar
    36    20    42    1
    37    21    22   ar
    38    21    24    1
    39    22    23   ar
    40    22    43    1
    41    23    44    1
    42    24    45    1
    43    26    46    1
    44    27    47    1
    45    28    48    1
    46    29    49    1
    47    30    50    1
    48     1    31    1
    49     1    27    1
    50     2    32    1
    51     2    28    1
    52     4    34    1
    53     4    30    1
