@<TRIPOS>MOLECULE
*****
 50 53 0 0 0
SMALL
GASTEIGER

@<TRIPOS>ATOM
     1 C         -0.257635   -1.398703   1.657727 C.3        1 UNL1     0.1889
     2 C         -0.446473   -0.98709   0.172851 C.3        1 UNL1     0.1342
     3 C         -1.906   -0.967819   -0.306599 C.3        1 UNL1     0.1174
     4 C         -2.758212   -2.061589   0.341874 C.3        1 UNL1     0.1456
     5 C         -2.550135   -2.146709   1.86497 C.3        1 UNL1     0.2326
     6 O         -1.171456   -2.364768   2.155768 O.3        1 UNL1     -0.3076
     7 O         -3.110608   -1.032575   2.583229 O.3        1 UNL1     -0.4605
     8 C         -3.571695   -1.30384   3.858903 C.ar        1 UNL1     0.1310
     9 C         -4.364555   -2.399114   4.218135 C.ar        1 UNL1     0.0226
     10 C         -4.767765   -2.596785   5.544125 C.ar        1 UNL1     0.1343
     11 C         -4.367654   -1.71606   6.548154 C.ar        1 UNL1     0.1007
     12 C         -3.610042   -0.596213   6.194954 C.ar        1 UNL1     0.1389
     13 C         -3.206955   -0.396243   4.861176 C.ar        1 UNL1     0.0229
     14 C         -4.694652   -1.922734   7.978019 C.2        1 UNL1     0.1740
     15 C         -3.999518   -1.006728   8.942006 C.3        1 UNL1     0.0520
     16 C         -3.966116   0.391109   8.3396 C.3        1 UNL1     0.1322
     17 O         -3.252553   0.391225   7.083456 O.3        1 UNL1     -0.4828
     18 C         -5.334955   1.074267   8.291648 C.ar        1 UNL1     -0.0067
     19 C         -5.762697   1.684805   7.09478 C.ar        1 UNL1     -0.0516
     20 C         -6.987952   2.359017   7.030338 C.ar        1 UNL1     -0.0198
     21 C         -7.789381   2.435895   8.155339 C.ar        1 UNL1     0.1169
     22 C         -7.410822   1.816088   9.339134 C.ar        1 UNL1     -0.0198
     23 C         -6.194126   1.126044   9.398688 C.ar        1 UNL1     -0.0516
     24 O         -8.958167   3.133187   8.065199 O.3        1 UNL1     -0.5068
     25 O         -5.420204   -2.82778   8.381691 O.2        1 UNL1     -0.2917
     26 O         -5.541372   -3.684181   5.828179 O.3        1 UNL1     -0.5058
     27 O         -0.131342   -0.294032   2.538942 O.3        1 UNL1     -0.3648
     28 O         0.263946   -1.926748   -0.654828 O.3        1 UNL1     -0.3841
     29 O         -2.471608   0.335984   -0.157201 O.3        1 UNL1     -0.3863
     30 O         -2.418871   -3.336841   -0.244871 O.3        1 UNL1     -0.3829
     31 H         0.711161   -1.906168   1.7209 H        1 UNL1     0.0937
     32 H         0.0   0.0   0.0 H        1 UNL1     0.0671
     33 H         -1.906374   -1.163865   -1.387934 H        1 UNL1     0.0649
     34 H         -3.818567   -1.883765   0.131098 H        1 UNL1     0.0683
     35 H         -3.085448   -3.059677   2.154466 H        1 UNL1     0.1085
     36 H         -4.6619   -3.149714   3.494045 H        1 UNL1     0.0691
     37 H         -2.618399   0.484092   4.611968 H        1 UNL1     0.0691
     38 H         -2.986964   -1.394718   9.096035 H        1 UNL1     0.0385
     39 H         -4.524979   -1.031093   9.902775 H        1 UNL1     0.0385
     40 H         -3.352968   1.015227   9.003713 H        1 UNL1     0.0789
     41 H         -5.147603   1.646412   6.200445 H        1 UNL1     0.0623
     42 H         -7.30122   2.835944   6.104912 H        1 UNL1     0.0654
     43 H         -8.037765   1.857253   10.221834 H        1 UNL1     0.0654
     44 H         -5.934838   0.644627   10.336693 H        1 UNL1     0.0623
     45 H         -8.748988   4.055092   7.843719 H        1 UNL1     0.2921
     46 H         -5.107737   -4.220299   6.510785 H        1 UNL1     0.2922
     47 H         0.593436   0.280077   2.254418 H        1 UNL1     0.2126
     48 H         1.208157   -1.850594   -0.417345 H        1 UNL1     0.2101
     49 H         -2.067697   0.945978   -0.794819 H        1 UNL1     0.2100
     50 H         -2.691977   -3.31818   -1.185497 H        1 UNL1     0.2102
@<TRIPOS>BOND
     1     1     2    1
     2     1     6    1
     3     2     3    1
     4     3     4    1
     5     3    29    1
     6     3    33    1
     7     4     5    1
     8     5     6    1
     9     5     7    1
    10     5    35    1
    11     7     8    1
    12     8     9   ar
    13     8    13   ar
    14     9    10   ar
    15     9    36    1
    16    10    11   ar
    17    10    26    1
    18    11    12   ar
    19    11    14    1
    20    12    13   ar
    21    12    17    1
    22    13    37    1
    23    14    15    1
    24    14    25    2
    25    15    16    1
    26    15    38    1
    27    15    39    1
    28    16    17    1
    29    16    18    1
    30    16    40    1
    31    18    19   ar
    32    18    23   ar
    33    19    20   ar
    34    19    41    1
    35    20    21   ar
    36    20    42    1
    37    21    22   ar
    38    21    24    1
    39    22    23   ar
    40    22    43    1
    41    23    44    1
    42    24    45    1
    43    26    46    1
    44    27    47    1
    45    28    48    1
    46    29    49    1
    47    30    50    1
    48     1    31    1
    49     1    27    1
    50     2    32    1
    51     2    28    1
    52     4    34    1
    53     4    30    1
