@<TRIPOS>MOLECULE
*****
 50 53 0 0 0
SMALL
GASTEIGER

@<TRIPOS>ATOM
     1 C         -0.316857   -1.339121   1.69622 C.3        1 UNL1     0.1889
     2 C         -0.47499   -0.969116   0.196876 C.3        1 UNL1     0.1342
     3 C         -1.927024   -0.92632   -0.303356 C.3        1 UNL1     0.1174
     4 C         -2.816706   -1.97652   0.366465 C.3        1 UNL1     0.1456
     5 C         -2.631102   -2.01962   1.894228 C.3        1 UNL1     0.2326
     6 O         -1.262715   -2.264783   2.210901 O.3        1 UNL1     -0.3076
     7 O         -3.170966   -0.869272   2.569924 O.3        1 UNL1     -0.4605
     8 C         -3.666276   -1.090711   3.842386 C.ar        1 UNL1     0.1310
     9 C         -4.500213   -2.150699   4.21424 C.ar        1 UNL1     0.0226
     10 C         -4.936409   -2.298991   5.536225 C.ar        1 UNL1     0.1343
     11 C         -4.529505   -1.403444   6.524286 C.ar        1 UNL1     0.1007
     12 C         -3.730145   -0.317653   6.157045 C.ar        1 UNL1     0.1389
     13 C         -3.293841   -0.167277   4.827211 C.ar        1 UNL1     0.0229
     14 C         -4.891947   -1.560189   7.951949 C.2        1 UNL1     0.1740
     15 C         -4.188303   -0.639572   8.905311 C.3        1 UNL1     0.0520
     16 C         -4.098854   0.739313   8.266068 C.3        1 UNL1     0.1322
     17 O         -3.360133   0.682618   7.025847 O.3        1 UNL1     -0.4828
     18 C         -5.444366   1.46263   8.170498 C.ar        1 UNL1     -0.0067
     19 C         -5.821634   2.065428   6.952912 C.ar        1 UNL1     -0.0516
     20 C         -7.023521   2.775183   6.844844 C.ar        1 UNL1     -0.0198
     21 C         -7.851454   2.895331   7.946624 C.ar        1 UNL1     0.1169
     22 C         -7.52327   2.284535   9.149979 C.ar        1 UNL1     -0.0198
     23 C         -6.330293   1.559132   9.253187 C.ar        1 UNL1     -0.0516
     24 O         -8.995535   3.62601   7.814008 O.3        1 UNL1     -0.5068
     25 O         -5.653574   -2.430947   8.364489 O.2        1 UNL1     -0.2917
     26 O         -5.749325   -3.353787   5.83314 O.3        1 UNL1     -0.5058
     27 O         -0.172665   -0.211256   2.544699 O.3        1 UNL1     -0.3648
     28 O         0.22087   -1.952495   -0.591446 O.3        1 UNL1     -0.3841
     29 O         -2.459434   0.395959   -0.202106 O.3        1 UNL1     -0.3863
     30 O         -2.503925   -3.277928   -0.175933 O.3        1 UNL1     -0.3829
     31 H         0.637084   -1.869734   1.78856 H        1 UNL1     0.0937
     32 H         0.0   0.0   0.0 H        1 UNL1     0.0671
     33 H         -1.918378   -1.155869   -1.378043 H        1 UNL1     0.0649
     34 H         -3.869045   -1.777457   0.13547 H        1 UNL1     0.0683
     35 H         -3.194447   -2.908702   2.204154 H        1 UNL1     0.1085
     36 H         -4.806065   -2.91162   3.504609 H        1 UNL1     0.0691
     37 H         -2.673042   0.687291   4.5668 H        1 UNL1     0.0691
     38 H         -3.191751   -1.054077   9.091311 H        1 UNL1     0.0385
     39 H         -4.73378   -0.621088   9.854991 H        1 UNL1     0.0385
     40 H         -3.480154   1.362487   8.925905 H        1 UNL1     0.0789
     41 H         -5.184756   1.993289   6.076081 H        1 UNL1     0.0623
     42 H         -7.297627   3.245595   5.903786 H        1 UNL1     0.0654
     43 H         -8.171597   2.359604   10.014818 H        1 UNL1     0.0654
     44 H         -6.11059   1.086079   10.205446 H        1 UNL1     0.0623
     45 H         -8.751733   4.542382   7.605346 H        1 UNL1     0.2921
     46 H         -5.346719   -3.883821   6.539104 H        1 UNL1     0.2922
     47 H         0.560523   0.343094   2.24305 H        1 UNL1     0.2126
     48 H         1.167053   -1.876429   -0.361915 H        1 UNL1     0.2101
     49 H         -2.030951   0.974941   -0.852472 H        1 UNL1     0.2100
     50 H         -2.763997   -3.281377   -1.120424 H        1 UNL1     0.2102
@<TRIPOS>BOND
     1     1     2    1
     2     1     6    1
     3     2     3    1
     4     3     4    1
     5     3    29    1
     6     3    33    1
     7     4     5    1
     8     5     6    1
     9     5     7    1
    10     5    35    1
    11     7     8    1
    12     8     9   ar
    13     8    13   ar
    14     9    10   ar
    15     9    36    1
    16    10    11   ar
    17    10    26    1
    18    11    12   ar
    19    11    14    1
    20    12    13   ar
    21    12    17    1
    22    13    37    1
    23    14    15    1
    24    14    25    2
    25    15    16    1
    26    15    38    1
    27    15    39    1
    28    16    17    1
    29    16    18    1
    30    16    40    1
    31    18    19   ar
    32    18    23   ar
    33    19    20   ar
    34    19    41    1
    35    20    21   ar
    36    20    42    1
    37    21    22   ar
    38    21    24    1
    39    22    23   ar
    40    22    43    1
    41    23    44    1
    42    24    45    1
    43    26    46    1
    44    27    47    1
    45    28    48    1
    46    29    49    1
    47    30    50    1
    48     1    31    1
    49     1    27    1
    50     2    32    1
    51     2    28    1
    52     4    34    1
    53     4    30    1
