@<TRIPOS>MOLECULE
*****
 50 53 0 0 0
SMALL
GASTEIGER

@<TRIPOS>ATOM
     1 C         -0.312754   -1.349687   1.688589 C.3        1 UNL1     0.1889
     2 C         -0.471035   -0.972192   0.19113 C.3        1 UNL1     0.1342
     3 C         -1.92276   -0.932862   -0.310281 C.3        1 UNL1     0.1174
     4 C         -2.808589   -1.990484   0.352939 C.3        1 UNL1     0.1456
     5 C         -2.62426   -2.04112   1.880624 C.3        1 UNL1     0.2326
     6 O         -1.255142   -2.282167   2.197295 O.3        1 UNL1     -0.3076
     7 O         -3.169677   -0.896785   2.562049 O.3        1 UNL1     -0.4605
     8 C         -3.66525   -1.127269   3.832801 C.ar        1 UNL1     0.1310
     9 C         -4.489365   -2.196672   4.199561 C.ar        1 UNL1     0.0226
     10 C         -4.92665   -2.353588   5.52019 C.ar        1 UNL1     0.1343
     11 C         -4.530571   -1.457282   6.511955 C.ar        1 UNL1     0.1007
     12 C         -3.741297   -0.362435   6.149823 C.ar        1 UNL1     0.1389
     13 C         -3.303909   -0.203408   4.821353 C.ar        1 UNL1     0.0229
     14 C         -4.894228   -1.622265   7.93838 C.2        1 UNL1     0.1740
     15 C         -4.201606   -0.697839   8.896117 C.3        1 UNL1     0.0520
     16 C         -4.124578   0.683942   8.261526 C.3        1 UNL1     0.1322
     17 O         -3.382913   0.638612   7.022596 O.3        1 UNL1     -0.4828
     18 C         -5.477004   1.394205   8.165633 C.ar        1 UNL1     -0.0067
     19 C         -5.604199   2.533581   7.344744 C.ar        1 UNL1     -0.0516
     20 C         -6.813858   3.234493   7.271178 C.ar        1 UNL1     -0.0198
     21 C         -7.89908   2.811404   8.017581 C.ar        1 UNL1     0.1169
     22 C         -7.814606   1.673503   8.809341 C.ar        1 UNL1     -0.0198
     23 C         -6.610511   0.961693   8.868831 C.ar        1 UNL1     -0.0516
     24 O         -9.049413   3.541141   7.949622 O.3        1 UNL1     -0.5068
     25 O         -5.647991   -2.501865   8.346583 O.2        1 UNL1     -0.2917
     26 O         -5.72965   -3.417346   5.81207 O.3        1 UNL1     -0.5058
     27 O         -0.17419   -0.22586   2.54334 O.3        1 UNL1     -0.3648
     28 O         0.22977   -1.948281   -0.601857 O.3        1 UNL1     -0.3841
     29 O         -2.460908   0.386562   -0.20235 O.3        1 UNL1     -0.3863
     30 O         -2.489736   -3.287569   -0.196235 O.3        1 UNL1     -0.3829
     31 H         0.643355   -1.876722   1.77897 H        1 UNL1     0.0937
     32 H         0.0   0.0   0.0 H        1 UNL1     0.0671
     33 H         -1.912108   -1.15651   -1.386194 H        1 UNL1     0.0649
     34 H         -3.861547   -1.794654   0.122003 H        1 UNL1     0.0683
     35 H         -3.184099   -2.934273   2.185152 H        1 UNL1     0.1085
     36 H         -4.786275   -2.958265   3.486861 H        1 UNL1     0.0691
     37 H         -2.691103   0.658112   4.564946 H        1 UNL1     0.0691
     38 H         -3.201359   -1.103058   9.082748 H        1 UNL1     0.0385
     39 H         -4.749092   -0.687856   9.844767 H        1 UNL1     0.0385
     40 H         -3.513375   1.311058   8.924607 H        1 UNL1     0.0789
     41 H         -4.764397   2.891219   6.756121 H        1 UNL1     0.0623
     42 H         -6.895875   4.118549   6.6437 H        1 UNL1     0.0654
     43 H         -8.662753   1.324688   9.386302 H        1 UNL1     0.0654
     44 H         -6.583301   0.071215   9.489438 H        1 UNL1     0.0623
     45 H         -8.867526   4.43266   8.288485 H        1 UNL1     0.2921
     46 H         -5.334085   -3.933268   6.532324 H        1 UNL1     0.2922
     47 H         0.556912   0.333248   2.245433 H        1 UNL1     0.2126
     48 H         1.179974   -1.838687   -0.404795 H        1 UNL1     0.2101
     49 H         -2.034527   0.970822   -0.849368 H        1 UNL1     0.2100
     50 H         -2.769619   -3.294597   -1.135026 H        1 UNL1     0.2102
@<TRIPOS>BOND
     1     1     2    1
     2     1     6    1
     3     2     3    1
     4     3     4    1
     5     3    29    1
     6     3    33    1
     7     4     5    1
     8     5     6    1
     9     5     7    1
    10     5    35    1
    11     7     8    1
    12     8     9   ar
    13     8    13   ar
    14     9    10   ar
    15     9    36    1
    16    10    11   ar
    17    10    26    1
    18    11    12   ar
    19    11    14    1
    20    12    13   ar
    21    12    17    1
    22    13    37    1
    23    14    15    1
    24    14    25    2
    25    15    16    1
    26    15    38    1
    27    15    39    1
    28    16    17    1
    29    16    18    1
    30    16    40    1
    31    18    19   ar
    32    18    23   ar
    33    19    20   ar
    34    19    41    1
    35    20    21   ar
    36    20    42    1
    37    21    22   ar
    38    21    24    1
    39    22    23   ar
    40    22    43    1
    41    23    44    1
    42    24    45    1
    43    26    46    1
    44    27    47    1
    45    28    48    1
    46    29    49    1
    47    30    50    1
    48     1    31    1
    49     1    27    1
    50     2    32    1
    51     2    28    1
    52     4    34    1
    53     4    30    1
