@<TRIPOS>MOLECULE
*****
 50 53 0 0 0
SMALL
GASTEIGER

@<TRIPOS>ATOM
     1 C         -0.332502   -1.328473   1.701589 C.3        1 UNL1     0.1889
     2 C         -0.462425   -0.97546   0.195454 C.3        1 UNL1     0.1342
     3 C         -1.903053   -0.963042   -0.338306 C.3        1 UNL1     0.1174
     4 C         -2.789496   -2.022444   0.321242 C.3        1 UNL1     0.1456
     5 C         -2.638474   -2.047864   1.853205 C.3        1 UNL1     0.2326
     6 O         -1.27369   -2.265815   2.203536 O.3        1 UNL1     -0.3076
     7 O         -3.213778   -0.90092   2.505023 O.3        1 UNL1     -0.4605
     8 C         -3.723774   -1.11647   3.772687 C.ar        1 UNL1     0.1310
     9 C         -4.539979   -2.189627   4.146106 C.ar        1 UNL1     0.0226
     10 C         -4.99325   -2.330095   5.463193 C.ar        1 UNL1     0.1343
     11 C         -4.621388   -1.412848   6.445138 C.ar        1 UNL1     0.1007
     12 C         -3.840384   -0.314599   6.075456 C.ar        1 UNL1     0.1389
     13 C         -3.38693   -0.172148   4.750497 C.ar        1 UNL1     0.0229
     14 C         -5.002382   -1.558746   7.869116 C.2        1 UNL1     0.1740
     15 C         -4.3339   -0.610342   8.82054 C.3        1 UNL1     0.0520
     16 C         -4.26475   0.761645   8.164167 C.3        1 UNL1     0.1322
     17 O         -3.505846   0.704952   6.936193 O.3        1 UNL1     -0.4828
     18 C         -5.624124   1.453752   8.038403 C.ar        1 UNL1     -0.0067
     19 C         -6.003033   2.016469   6.802284 C.ar        1 UNL1     -0.0516
     20 C         -7.218424   2.697716   6.66558 C.ar        1 UNL1     -0.0198
     21 C         -8.058427   2.829156   7.756885 C.ar        1 UNL1     0.1169
     22 C         -7.728297   2.257041   8.97858 C.ar        1 UNL1     -0.0198
     23 C         -6.521444   1.559841   9.110764 C.ar        1 UNL1     -0.0516
     24 O         -9.216246   3.53189   7.595573 O.3        1 UNL1     -0.5068
     25 O         -5.751074   -2.440604   8.281757 O.2        1 UNL1     -0.2917
     26 O         -5.787394   -3.398585   5.761939 O.3        1 UNL1     -0.5058
     27 O         -0.227632   -0.190293   2.542028 O.3        1 UNL1     -0.3648
     28 O         0.268495   -1.953772   -0.567021 O.3        1 UNL1     -0.3841
     29 O         -2.460649   0.350517   -0.262275 O.3        1 UNL1     -0.3863
     30 O         -2.441621   -3.323173   -0.201037 O.3        1 UNL1     -0.3829
     31 H         0.628167   -1.841253   1.820967 H        1 UNL1     0.0937
     32 H         0.0   0.0   0.0 H        1 UNL1     0.0671
     33 H         -1.865604   -1.202516   -1.410207 H        1 UNL1     0.0649
     34 H         -3.839537   -1.844192   0.064255 H        1 UNL1     0.0683
     35 H         -3.193222   -2.943802   2.158864 H        1 UNL1     0.1085
     36 H         -4.818082   -2.966394   3.442251 H        1 UNL1     0.0691
     37 H         -2.781017   0.692418   4.488031 H        1 UNL1     0.0691
     38 H         -3.331518   -1.000253   9.027242 H        1 UNL1     0.0385
     39 H         -4.894294   -0.591404   9.761486 H        1 UNL1     0.0385
     40 H         -3.670127   1.406965   8.824853 H        1 UNL1     0.0789
     41 H         -5.357032   1.934867   5.932988 H        1 UNL1     0.0623
     42 H         -7.493897   3.137515   5.710225 H        1 UNL1     0.0654
     43 H         -8.385698   2.341018   9.835715 H        1 UNL1     0.0654
     44 H         -6.300405   1.11655   10.076931 H        1 UNL1     0.0623
     45 H         -8.99036   4.439485   7.334873 H        1 UNL1     0.2921
     46 H         -5.383493   -3.911132   6.479973 H        1 UNL1     0.2922
     47 H         0.515399   0.363536   2.26447 H        1 UNL1     0.2126
     48 H         1.2013   -1.88787   -0.285481 H        1 UNL1     0.2101
     49 H         -2.021596   0.932968   -0.902413 H        1 UNL1     0.2100
     50 H         -2.674508   -3.338186   -1.152484 H        1 UNL1     0.2102
@<TRIPOS>BOND
     1     1     2    1
     2     1     6    1
     3     2     3    1
     4     3     4    1
     5     3    29    1
     6     3    33    1
     7     4     5    1
     8     5     6    1
     9     5     7    1
    10     5    35    1
    11     7     8    1
    12     8     9   ar
    13     8    13   ar
    14     9    10   ar
    15     9    36    1
    16    10    11   ar
    17    10    26    1
    18    11    12   ar
    19    11    14    1
    20    12    13   ar
    21    12    17    1
    22    13    37    1
    23    14    15    1
    24    14    25    2
    25    15    16    1
    26    15    38    1
    27    15    39    1
    28    16    17    1
    29    16    18    1
    30    16    40    1
    31    18    19   ar
    32    18    23   ar
    33    19    20   ar
    34    19    41    1
    35    20    21   ar
    36    20    42    1
    37    21    22   ar
    38    21    24    1
    39    22    23   ar
    40    22    43    1
    41    23    44    1
    42    24    45    1
    43    26    46    1
    44    27    47    1
    45    28    48    1
    46    29    49    1
    47    30    50    1
    48     1    31    1
    49     1    27    1
    50     2    32    1
    51     2    28    1
    52     4    34    1
    53     4    30    1
