@<TRIPOS>MOLECULE
*****
 50 53 0 0 0
SMALL
GASTEIGER

@<TRIPOS>ATOM
     1 C         0.396231   -1.982351   0.827098 C.3        1 UNL1     0.1889
     2 C         -0.142485   -1.048452   -0.289843 C.3        1 UNL1     0.1342
     3 C         -1.617973   -1.271146   -0.655641 C.3        1 UNL1     0.1174
     4 C         -2.037932   -2.740036   -0.560179 C.3        1 UNL1     0.1456
     5 C         -1.557993   -3.407724   0.741441 C.3        1 UNL1     0.2326
     6 O         -0.140746   -3.296691   0.850758 O.3        1 UNL1     -0.3076
     7 O         -2.253878   -2.945264   1.913276 O.3        1 UNL1     -0.4605
     8 C         -3.635367   -2.976879   1.849896 C.ar        1 UNL1     0.1310
     9 C         -4.451772   -1.920448   1.431879 C.ar        1 UNL1     0.0226
     10 C         -5.844384   -2.056273   1.386223 C.ar        1 UNL1     0.1343
     11 C         -6.453472   -3.260892   1.735145 C.ar        1 UNL1     0.1007
     12 C         -5.651595   -4.309631   2.193317 C.ar        1 UNL1     0.1389
     13 C         -4.251546   -4.17194   2.24165 C.ar        1 UNL1     0.0229
     14 C         -7.913345   -3.486535   1.625554 C.2        1 UNL1     0.1740
     15 C         -8.368479   -4.902074   1.827176 C.3        1 UNL1     0.0520
     16 C         -7.565126   -5.508376   2.969532 C.3        1 UNL1     0.1322
     17 O         -6.153165   -5.500933   2.663948 O.3        1 UNL1     -0.4828
     18 C         -7.919729   -4.935811   4.343996 C.ar        1 UNL1     -0.0067
     19 C         -8.967685   -3.998912   4.45455 C.ar        1 UNL1     -0.0516
     20 C         -9.286635   -3.42024   5.688799 C.ar        1 UNL1     -0.0198
     21 C         -8.56196   -3.763847   6.816012 C.ar        1 UNL1     0.1169
     22 C         -7.546271   -4.708408   6.745155 C.ar        1 UNL1     -0.0198
     23 C         -7.239232   -5.300987   5.514451 C.ar        1 UNL1     -0.0516
     24 O         -8.876487   -3.151439   7.993479 O.3        1 UNL1     -0.5068
     25 O         -8.711705   -2.607439   1.312033 O.2        1 UNL1     -0.2917
     26 O         -6.583775   -0.987654   0.970362 O.3        1 UNL1     -0.5058
     27 O         0.384023   -1.388328   2.115421 O.3        1 UNL1     -0.3648
     28 O         0.632692   -1.269727   -1.482673 O.3        1 UNL1     -0.3841
     29 O         -2.464485   -0.403226   0.100841 O.3        1 UNL1     -0.3863
     30 O         -1.488717   -3.463694   -1.682841 O.3        1 UNL1     -0.3829
     31 H         1.458731   -2.143623   0.614581 H        1 UNL1     0.0937
     32 H         0.0   0.0   0.0 H        1 UNL1     0.0671
     33 H         -1.752832   -0.969526   -1.703763 H        1 UNL1     0.0649
     34 H         -3.128341   -2.82243   -0.628162 H        1 UNL1     0.0683
     35 H         -1.784062   -4.470982   0.592264 H        1 UNL1     0.1085
     36 H         -4.035881   -0.97736   1.094625 H        1 UNL1     0.0691
     37 H         -3.6497   -5.002937   2.603199 H        1 UNL1     0.0691
     38 H         -8.193616   -5.44272   0.890879 H        1 UNL1     0.0385
     39 H         -9.444972   -4.907624   2.02944 H        1 UNL1     0.0385
     40 H         -7.829186   -6.573316   3.021433 H        1 UNL1     0.0789
     41 H         -9.545511   -3.705722   3.58288 H        1 UNL1     0.0623
     42 H         -10.089143   -2.690121   5.758932 H        1 UNL1     0.0654
     43 H         -6.982346   -4.995969   7.624477 H        1 UNL1     0.0654
     44 H         -6.446668   -6.042881   5.497748 H        1 UNL1     0.0623
     45 H         -9.241736   -3.817861   8.597791 H        1 UNL1     0.2921
     46 H         -7.341714   -1.300809   0.451832 H        1 UNL1     0.2922
     47 H         0.718037   -2.012257   2.774971 H        1 UNL1     0.2126
     48 H         1.569067   -1.145192   -1.234831 H        1 UNL1     0.2101
     49 H         -1.954721   0.3577   0.421662 H        1 UNL1     0.2100
     50 H         -0.990482   -4.230939   -1.332399 H        1 UNL1     0.2102
@<TRIPOS>BOND
     1     1     2    1
     2     1     6    1
     3     2     3    1
     4     3     4    1
     5     3    29    1
     6     3    33    1
     7     4     5    1
     8     5     6    1
     9     5     7    1
    10     5    35    1
    11     7     8    1
    12     8     9   ar
    13     8    13   ar
    14     9    10   ar
    15     9    36    1
    16    10    11   ar
    17    10    26    1
    18    11    12   ar
    19    11    14    1
    20    12    13   ar
    21    12    17    1
    22    13    37    1
    23    14    15    1
    24    14    25    2
    25    15    16    1
    26    15    38    1
    27    15    39    1
    28    16    17    1
    29    16    18    1
    30    16    40    1
    31    18    19   ar
    32    18    23   ar
    33    19    20   ar
    34    19    41    1
    35    20    21   ar
    36    20    42    1
    37    21    22   ar
    38    21    24    1
    39    22    23   ar
    40    22    43    1
    41    23    44    1
    42    24    45    1
    43    26    46    1
    44    27    47    1
    45    28    48    1
    46    29    49    1
    47    30    50    1
    48     1    31    1
    49     1    27    1
    50     2    32    1
    51     2    28    1
    52     4    34    1
    53     4    30    1
