@<TRIPOS>MOLECULE
*****
 50 53 0 0 0
SMALL
GASTEIGER

@<TRIPOS>ATOM
     1 C         -1.909028   -0.513621   -0.928769 C.3        1 UNL1     0.1889
     2 C         -0.695291   0.433523   -0.729514 C.3        1 UNL1     0.1342
     3 C         -1.060114   1.859204   -0.28815 C.3        1 UNL1     0.1174
     4 C         -2.375416   2.350865   -0.897549 C.3        1 UNL1     0.1456
     5 C         -3.50058   1.304949   -0.795427 C.3        1 UNL1     0.2326
     6 O         -3.094516   0.091263   -1.423874 O.3        1 UNL1     -0.3076
     7 O         -3.984724   1.112996   0.546244 O.3        1 UNL1     -0.4605
     8 C         -5.083282   1.871528   0.908634 C.ar        1 UNL1     0.1310
     9 C         -6.308707   1.362681   1.352151 C.ar        1 UNL1     0.0226
     10 C         -7.358464   2.21563   1.713252 C.ar        1 UNL1     0.1343
     11 C         -7.200009   3.599872   1.662191 C.ar        1 UNL1     0.1007
     12 C         -5.994978   4.119519   1.181931 C.ar        1 UNL1     0.1389
     13 C         -4.940524   3.261648   0.816398 C.ar        1 UNL1     0.0229
     14 C         -8.246356   4.547318   2.111255 C.2        1 UNL1     0.1740
     15 C         -7.82659   5.985371   2.196969 C.3        1 UNL1     0.0520
     16 C         -6.944951   6.30227   0.996867 C.3        1 UNL1     0.1322
     17 O         -5.769391   5.462595   0.988219 O.3        1 UNL1     -0.4828
     18 C         -7.704203   6.344404   -0.331472 C.ar        1 UNL1     -0.0067
     19 C         -7.244392   7.185454   -1.365601 C.ar        1 UNL1     -0.0516
     20 C         -7.941956   7.283491   -2.575458 C.ar        1 UNL1     -0.0198
     21 C         -9.102068   6.552881   -2.760327 C.ar        1 UNL1     0.1169
     22 C         -9.561682   5.690609   -1.773372 C.ar        1 UNL1     -0.0198
     23 C         -8.854203   5.578397   -0.570484 C.ar        1 UNL1     -0.0516
     24 O         -9.775166   6.70279   -3.93713 O.3        1 UNL1     -0.5068
     25 O         -9.366405   4.196102   2.472672 O.2        1 UNL1     -0.2917
     26 O         -8.528476   1.655742   2.136551 O.3        1 UNL1     -0.5058
     27 O         -2.17213   -1.339389   0.194472 O.3        1 UNL1     -0.3648
     28 O         0.010587   0.539574   -1.979791 O.3        1 UNL1     -0.3841
     29 O         -1.034062   1.971325   1.136239 O.3        1 UNL1     -0.3863
     30 O         -2.162602   2.669106   -2.290072 O.3        1 UNL1     -0.3829
     31 H         -1.630259   -1.2169   -1.721085 H        1 UNL1     0.0937
     32 H         0.0   0.0   0.0 H        1 UNL1     0.0671
     33 H         -0.271097   2.534022   -0.648417 H        1 UNL1     0.0649
     34 H         -2.694531   3.274833   -0.402724 H        1 UNL1     0.0683
     35 H         -4.308999   1.725581   -1.406498 H        1 UNL1     0.1085
     36 H         -6.47566   0.297319   1.467266 H        1 UNL1     0.0691
     37 H         -4.012802   3.691211   0.444509 H        1 UNL1     0.0691
     38 H         -7.277342   6.114663   3.135658 H        1 UNL1     0.0385
     39 H         -8.719725   6.618436   2.23328 H        1 UNL1     0.0385
     40 H         -6.55507   7.318985   1.141103 H        1 UNL1     0.0789
     41 H         -6.341435   7.776182   -1.241667 H        1 UNL1     0.0623
     42 H         -7.583761   7.944588   -3.360734 H        1 UNL1     0.0654
     43 H         -10.460776   5.102469   -1.913487 H        1 UNL1     0.0654
     44 H         -9.236198   4.887158   0.174576 H        1 UNL1     0.0623
     45 H         -10.727478   6.655079   -3.753981 H        1 UNL1     0.2921
     46 H         -8.931151   1.157766   1.407659 H        1 UNL1     0.2922
     47 H         -2.657806   -2.130441   -0.077953 H        1 UNL1     0.2126
     48 H         -0.628095   0.884372   -2.633192 H        1 UNL1     0.2101
     49 H         -0.149897   2.243159   1.429757 H        1 UNL1     0.2100
     50 H         -2.765398   3.404128   -2.526911 H        1 UNL1     0.2102
@<TRIPOS>BOND
     1     1     2    1
     2     1     6    1
     3     2     3    1
     4     3     4    1
     5     3    29    1
     6     3    33    1
     7     4     5    1
     8     5     6    1
     9     5     7    1
    10     5    35    1
    11     7     8    1
    12     8     9   ar
    13     8    13   ar
    14     9    10   ar
    15     9    36    1
    16    10    11   ar
    17    10    26    1
    18    11    12   ar
    19    11    14    1
    20    12    13   ar
    21    12    17    1
    22    13    37    1
    23    14    15    1
    24    14    25    2
    25    15    16    1
    26    15    38    1
    27    15    39    1
    28    16    17    1
    29    16    18    1
    30    16    40    1
    31    18    19   ar
    32    18    23   ar
    33    19    20   ar
    34    19    41    1
    35    20    21   ar
    36    20    42    1
    37    21    22   ar
    38    21    24    1
    39    22    23   ar
    40    22    43    1
    41    23    44    1
    42    24    45    1
    43    26    46    1
    44    27    47    1
    45    28    48    1
    46    29    49    1
    47    30    50    1
    48     1    31    1
    49     1    27    1
    50     2    32    1
    51     2    28    1
    52     4    34    1
    53     4    30    1
