@<TRIPOS>MOLECULE
*****
 50 53 0 0 0
SMALL
GASTEIGER

@<TRIPOS>ATOM
     1 C         0.17165   -1.809851   1.210693 C.3        1 UNL1     0.1889
     2 C         -0.36974   -1.032706   -0.0193 C.3        1 UNL1     0.1342
     3 C         -1.901015   -1.014482   -0.143114 C.3        1 UNL1     0.1174
     4 C         -2.551048   -2.313224   0.34046 C.3        1 UNL1     0.1456
     5 C         -1.989827   -2.785786   1.694003 C.3        1 UNL1     0.2326
     6 O         -0.576574   -2.951127   1.603179 O.3        1 UNL1     -0.3076
     7 O         -2.39289   -1.959785   2.801516 O.3        1 UNL1     -0.4605
     8 C         -2.546508   -2.605669   4.01509 C.ar        1 UNL1     0.1310
     9 C         -3.213266   -3.8204   4.207866 C.ar        1 UNL1     0.0226
     10 C         -3.300707   -4.404516   5.477144 C.ar        1 UNL1     0.1343
     11 C         -2.702383   -3.799326   6.581496 C.ar        1 UNL1     0.1007
     12 C         -2.069109   -2.565664   6.408797 C.ar        1 UNL1     0.1389
     13 C         -1.983604   -1.977238   5.132915 C.ar        1 UNL1     0.0229
     14 C         -2.691854   -4.413858   7.929232 C.2        1 UNL1     0.1740
     15 C         -1.816123   -3.738981   8.94372 C.3        1 UNL1     0.0520
     16 C         -1.950561   -2.23241   8.77015 C.3        1 UNL1     0.1322
     17 O         -1.540809   -1.830381   7.444425 O.3        1 UNL1     -0.4828
     18 C         -3.309042   -1.680402   9.208946 C.ar        1 UNL1     -0.0067
     19 C         -3.502184   -0.285046   9.271319 C.ar        1 UNL1     -0.0516
     20 C         -4.716585   0.252956   9.713751 C.ar        1 UNL1     -0.0198
     21 C         -5.740722   -0.591845   10.102699 C.ar        1 UNL1     0.1169
     22 C         -5.592385   -1.970295   10.020769 C.ar        1 UNL1     -0.0198
     23 C         -4.384554   -2.508538   9.560884 C.ar        1 UNL1     -0.0516
     24 O         -6.895653   -0.031617   10.563872 O.3        1 UNL1     -0.5068
     25 O         -3.287112   -5.452618   8.203334 O.2        1 UNL1     -0.2917
     26 O         -3.965947   -5.589627   5.597775 O.3        1 UNL1     -0.5058
     27 O         0.474441   -0.975969   2.317827 O.3        1 UNL1     -0.3648
     28 O         0.149223   -1.64869   -1.212592 O.3        1 UNL1     -0.3841
     29 O         -2.446935   0.145862   0.487523 O.3        1 UNL1     -0.3863
     30 O         -2.328208   -3.348665   -0.641321 O.3        1 UNL1     -0.3829
     31 H         1.140145   -2.227859   0.915117 H        1 UNL1     0.0937
     32 H         0.0   0.0   0.0 H        1 UNL1     0.0671
     33 H         -2.150107   -0.911947   -1.208553 H        1 UNL1     0.0649
     34 H         -3.635217   -2.17982   0.425198 H        1 UNL1     0.0683
     35 H         -2.420345   -3.786606   1.823974 H        1 UNL1     0.1085
     36 H         -3.650827   -4.368255   3.380511 H        1 UNL1     0.0691
     37 H         -1.486152   -1.015759   5.025245 H        1 UNL1     0.0691
     38 H         -0.786871   -4.067045   8.76333 H        1 UNL1     0.0385
     39 H         -2.109221   -4.068026   9.946517 H        1 UNL1     0.0385
     40 H         -1.216379   -1.762755   9.438672 H        1 UNL1     0.0789
     41 H         -2.710599   0.399297   8.980256 H        1 UNL1     0.0623
     42 H         -4.849105   1.330657   9.768633 H        1 UNL1     0.0654
     43 H         -6.393205   -2.640944   10.308565 H        1 UNL1     0.0654
     44 H         -4.307178   -3.589798   9.499787 H        1 UNL1     0.0623
     45 H         -6.704699   0.878253   10.843854 H        1 UNL1     0.2921
     46 H         -3.503974   -6.156497   6.235467 H        1 UNL1     0.2922
     47 H         0.667077   -1.513279   3.098884 H        1 UNL1     0.2126
     48 H         1.096745   -1.416545   -1.257791 H        1 UNL1     0.2101
     49 H         -2.760958   -0.079278   1.377745 H        1 UNL1     0.2100
     50 H         -2.832798   -3.11347   -1.447414 H        1 UNL1     0.2102
@<TRIPOS>BOND
     1     1     2    1
     2     1     6    1
     3     2     3    1
     4     3     4    1
     5     3    29    1
     6     3    33    1
     7     4     5    1
     8     5     6    1
     9     5     7    1
    10     5    35    1
    11     7     8    1
    12     8     9   ar
    13     8    13   ar
    14     9    10   ar
    15     9    36    1
    16    10    11   ar
    17    10    26    1
    18    11    12   ar
    19    11    14    1
    20    12    13   ar
    21    12    17    1
    22    13    37    1
    23    14    15    1
    24    14    25    2
    25    15    16    1
    26    15    38    1
    27    15    39    1
    28    16    17    1
    29    16    18    1
    30    16    40    1
    31    18    19   ar
    32    18    23   ar
    33    19    20   ar
    34    19    41    1
    35    20    21   ar
    36    20    42    1
    37    21    22   ar
    38    21    24    1
    39    22    23   ar
    40    22    43    1
    41    23    44    1
    42    24    45    1
    43    26    46    1
    44    27    47    1
    45    28    48    1
    46    29    49    1
    47    30    50    1
    48     1    31    1
    49     1    27    1
    50     2    32    1
    51     2    28    1
    52     4    34    1
    53     4    30    1
