@<TRIPOS>MOLECULE
*****
 50 53 0 0 0
SMALL
GASTEIGER

@<TRIPOS>ATOM
     1 C         0.627056   -1.952244   -0.752563 C.3        1 UNL1     0.1889
     2 C         0.002055   -1.04317   0.339637 C.3        1 UNL1     0.1342
     3 C         0.690426   -1.122352   1.710892 C.3        1 UNL1     0.1174
     4 C         1.215235   -2.524111   2.031461 C.3        1 UNL1     0.1456
     5 C         1.98468   -3.149862   0.853856 C.3        1 UNL1     0.2326
     6 O         1.152203   -3.192565   -0.302875 O.3        1 UNL1     -0.3076
     7 O         3.261139   -2.531445   0.609858 O.3        1 UNL1     -0.4605
     8 C         4.019166   -2.243123   1.73048 C.ar        1 UNL1     0.1310
     9 C         5.38887   -2.492496   1.868418 C.ar        1 UNL1     0.0226
     10 C         6.07291   -2.147516   3.04016 C.ar        1 UNL1     0.1343
     11 C         5.408008   -1.522479   4.094236 C.ar        1 UNL1     0.1007
     12 C         4.031906   -1.305545   3.984394 C.ar        1 UNL1     0.1389
     13 C         3.34381   -1.654915   2.807153 C.ar        1 UNL1     0.0229
     14 C         6.098092   -1.060781   5.320928 C.2        1 UNL1     0.1740
     15 C         5.276932   -0.213598   6.248035 C.3        1 UNL1     0.0520
     16 C         3.870148   -0.792383   6.310678 C.3        1 UNL1     0.1322
     17 O         3.258612   -0.796524   5.001832 O.3        1 UNL1     -0.4828
     18 C         3.785679   -2.127386   7.054557 C.ar        1 UNL1     -0.0067
     19 C         4.193501   -3.309866   6.403685 C.ar        1 UNL1     -0.0516
     20 C         4.084968   -4.55309   7.038175 C.ar        1 UNL1     -0.0198
     21 C         3.564573   -4.627818   8.317797 C.ar        1 UNL1     0.1169
     22 C         3.185577   -3.477378   8.997274 C.ar        1 UNL1     -0.0198
     23 C         3.311197   -2.232083   8.369965 C.ar        1 UNL1     -0.0516
     24 O         3.43881   -5.859848   8.889361 O.3        1 UNL1     -0.5068
     25 O         7.285671   -1.274704   5.549787 O.2        1 UNL1     -0.2917
     26 O         7.408168   -2.418747   3.111613 O.3        1 UNL1     -0.5058
     27 O         1.540634   -1.272691   -1.598949 O.3        1 UNL1     -0.3648
     28 O         -1.371202   -1.432964   0.526541 O.3        1 UNL1     -0.3841
     29 O         1.695521   -0.113844   1.832674 O.3        1 UNL1     -0.3863
     30 O         0.102409   -3.38141   2.366641 O.3        1 UNL1     -0.3829
     31 H         -0.190396   -2.247042   -1.419605 H        1 UNL1     0.0937
     32 H         0.0   0.0   0.0 H        1 UNL1     0.0671
     33 H         -0.059527   -0.880878   2.477038 H        1 UNL1     0.0649
     34 H         1.867622   -2.487131   2.910907 H        1 UNL1     0.0683
     35 H         2.148847   -4.188491   1.167193 H        1 UNL1     0.1085
     36 H         5.97365   -2.924627   1.063797 H        1 UNL1     0.0691
     37 H         2.272329   -1.476553   2.747097 H        1 UNL1     0.0691
     38 H         5.267448   0.804764   5.845076 H        1 UNL1     0.0385
     39 H         5.758208   -0.187772   7.231643 H        1 UNL1     0.0385
     40 H         3.258467   -0.093642   6.897302 H        1 UNL1     0.0789
     41 H         4.596727   -3.278851   5.395668 H        1 UNL1     0.0623
     42 H         4.391764   -5.459023   6.521287 H        1 UNL1     0.0654
     43 H         2.790829   -3.52294   10.005246 H        1 UNL1     0.0654
     44 H         3.015306   -1.352991   8.934317 H        1 UNL1     0.0623
     45 H         3.812668   -5.822205   9.784643 H        1 UNL1     0.2921
     46 H         7.906553   -1.705915   2.681618 H        1 UNL1     0.2922
     47 H         1.351534   -1.474169   -2.526045 H        1 UNL1     0.2126
     48 H         -1.511067   -1.511318   1.489885 H        1 UNL1     0.2101
     49 H         2.566574   -0.489627   1.628107 H        1 UNL1     0.2100
     50 H         0.389814   -3.981161   3.085953 H        1 UNL1     0.2102
@<TRIPOS>BOND
     1     1     2    1
     2     1     6    1
     3     2     3    1
     4     3     4    1
     5     3    29    1
     6     3    33    1
     7     4     5    1
     8     5     6    1
     9     5     7    1
    10     5    35    1
    11     7     8    1
    12     8     9   ar
    13     8    13   ar
    14     9    10   ar
    15     9    36    1
    16    10    11   ar
    17    10    26    1
    18    11    12   ar
    19    11    14    1
    20    12    13   ar
    21    12    17    1
    22    13    37    1
    23    14    15    1
    24    14    25    2
    25    15    16    1
    26    15    38    1
    27    15    39    1
    28    16    17    1
    29    16    18    1
    30    16    40    1
    31    18    19   ar
    32    18    23   ar
    33    19    20   ar
    34    19    41    1
    35    20    21   ar
    36    20    42    1
    37    21    22   ar
    38    21    24    1
    39    22    23   ar
    40    22    43    1
    41    23    44    1
    42    24    45    1
    43    26    46    1
    44    27    47    1
    45    28    48    1
    46    29    49    1
    47    30    50    1
    48     1    31    1
    49     1    27    1
    50     2    32    1
    51     2    28    1
    52     4    34    1
    53     4    30    1
