@<TRIPOS>MOLECULE
*****
 50 53 0 0 0
SMALL
GASTEIGER

@<TRIPOS>ATOM
     1 C         1.016157   0.363796   1.898916 C.3        1 UNL1     0.1889
     2 C         0.925008   -0.308614   0.502672 C.3        1 UNL1     0.1342
     3 C         0.995657   -1.843219   0.52414 C.3        1 UNL1     0.1174
     4 C         1.921595   -2.379463   1.618763 C.3        1 UNL1     0.1456
     5 C         1.685685   -1.696483   2.978266 C.3        1 UNL1     0.2326
     6 O         1.848452   -0.285986   2.84837 O.3        1 UNL1     -0.3076
     7 O         0.440902   -2.067763   3.597934 O.3        1 UNL1     -0.4605
     8 C         0.113501   -1.386432   4.756436 C.ar        1 UNL1     0.1310
     9 C         0.942069   -1.244591   5.874763 C.ar        1 UNL1     0.0226
     10 C         0.525174   -0.518848   6.996991 C.ar        1 UNL1     0.1343
     11 C         -0.722335   0.103321   7.018639 C.ar        1 UNL1     0.1007
     12 C         -1.574864   -0.065548   5.924353 C.ar        1 UNL1     0.1389
     13 C         -1.156486   -0.79754   4.797154 C.ar        1 UNL1     0.0229
     14 C         -1.179726   0.951672   8.143472 C.2        1 UNL1     0.1740
     15 C         -2.446173   1.720002   7.904036 C.3        1 UNL1     0.0520
     16 C         -3.419719   0.822164   7.153002 C.3        1 UNL1     0.1322
     17 O         -2.864324   0.411876   5.884037 O.3        1 UNL1     -0.4828
     18 C         -3.980717   -0.322765   7.999845 C.ar        1 UNL1     -0.0067
     19 C         -3.699119   -1.655644   7.636048 C.ar        1 UNL1     -0.0516
     20 C         -4.235338   -2.726662   8.36086 C.ar        1 UNL1     -0.0198
     21 C         -5.058667   -2.478599   9.444568 C.ar        1 UNL1     0.1169
     22 C         -5.327287   -1.17694   9.847515 C.ar        1 UNL1     -0.0198
     23 C         -4.776265   -0.105776   9.134046 C.ar        1 UNL1     -0.0516
     24 O         -5.593103   -3.546723   10.103272 O.3        1 UNL1     -0.5068
     25 O         -0.542122   1.097634   9.183011 O.2        1 UNL1     -0.2917
     26 O         1.380415   -0.419228   8.055398 O.3        1 UNL1     -0.5058
     27 O         -0.24829   0.694859   2.450603 O.3        1 UNL1     -0.3648
     28 O         2.023457   0.159578   -0.301637 O.3        1 UNL1     -0.3841
     29 O         -0.314776   -2.410389   0.580851 O.3        1 UNL1     -0.3863
     30 O         3.294442   -2.166338   1.224353 O.3        1 UNL1     -0.3829
     31 H         1.506543   1.331778   1.748548 H        1 UNL1     0.0937
     32 H         0.0   0.0   0.0 H        1 UNL1     0.0671
     33 H         1.415021   -2.173084   -0.436611 H        1 UNL1     0.0649
     34 H         1.783811   -3.460834   1.728542 H        1 UNL1     0.0683
     35 H         2.512972   -2.056879   3.602437 H        1 UNL1     0.1085
     36 H         1.944804   -1.657056   5.897492 H        1 UNL1     0.0691
     37 H         -1.839433   -0.915223   3.958567 H        1 UNL1     0.0691
     38 H         -2.189504   2.60571   7.313132 H        1 UNL1     0.0385
     39 H         -2.849722   2.055432   8.8655 H        1 UNL1     0.0385
     40 H         -4.288584   1.43881   6.885904 H        1 UNL1     0.0789
     41 H         -3.063087   -1.876768   6.783864 H        1 UNL1     0.0623
     42 H         -4.020422   -3.749999   8.063197 H        1 UNL1     0.0654
     43 H         -5.958558   -0.971443   10.703773 H        1 UNL1     0.0654
     44 H         -4.9986   0.897963   9.483218 H        1 UNL1     0.0623
     45 H         -5.357862   -3.476738   11.042677 H        1 UNL1     0.2921
     46 H         1.334069   -1.230089   8.586215 H        1 UNL1     0.2922
     47 H         -0.76767   1.206108   1.81442 H        1 UNL1     0.2126
     48 H         2.389307   -0.622538   -0.757904 H        1 UNL1     0.2101
     49 H         -0.372599   -3.168576   -0.022144 H        1 UNL1     0.2100
     50 H         3.816689   -2.940775   1.519681 H        1 UNL1     0.2102
@<TRIPOS>BOND
     1     1     2    1
     2     1     6    1
     3     2     3    1
     4     3     4    1
     5     3    29    1
     6     3    33    1
     7     4     5    1
     8     5     6    1
     9     5     7    1
    10     5    35    1
    11     7     8    1
    12     8     9   ar
    13     8    13   ar
    14     9    10   ar
    15     9    36    1
    16    10    11   ar
    17    10    26    1
    18    11    12   ar
    19    11    14    1
    20    12    13   ar
    21    12    17    1
    22    13    37    1
    23    14    15    1
    24    14    25    2
    25    15    16    1
    26    15    38    1
    27    15    39    1
    28    16    17    1
    29    16    18    1
    30    16    40    1
    31    18    19   ar
    32    18    23   ar
    33    19    20   ar
    34    19    41    1
    35    20    21   ar
    36    20    42    1
    37    21    22   ar
    38    21    24    1
    39    22    23   ar
    40    22    43    1
    41    23    44    1
    42    24    45    1
    43    26    46    1
    44    27    47    1
    45    28    48    1
    46    29    49    1
    47    30    50    1
    48     1    31    1
    49     1    27    1
    50     2    32    1
    51     2    28    1
    52     4    34    1
    53     4    30    1
