@<TRIPOS>MOLECULE
*****
 50 53 0 0 0
SMALL
GASTEIGER

@<TRIPOS>ATOM
     1 C         0.553888   0.570566   -2.034322 C.3        1 UNL1     0.1889
     2 C         -0.232949   0.798244   -0.715614 C.3        1 UNL1     0.1342
     3 C         -1.757134   0.889459   -0.88592 C.3        1 UNL1     0.1174
     4 C         -2.168522   1.563389   -2.197291 C.3        1 UNL1     0.1456
     5 C         -1.385985   1.024427   -3.408703 C.3        1 UNL1     0.2326
     6 O         0.014193   1.186812   -3.194221 O.3        1 UNL1     -0.3076
     7 O         -1.750305   -0.318885   -3.774906 O.3        1 UNL1     -0.4605
     8 C         -0.760223   -1.071925   -4.380047 C.ar        1 UNL1     0.1310
     9 C         -0.829543   -2.445495   -4.636563 C.ar        1 UNL1     0.0226
     10 C         0.221799   -3.117069   -5.271835 C.ar        1 UNL1     0.1343
     11 C         1.359081   -2.426128   -5.687807 C.ar        1 UNL1     0.1007
     12 C         1.457423   -1.062105   -5.400483 C.ar        1 UNL1     0.1389
     13 C         0.4013   -0.387588   -4.759344 C.ar        1 UNL1     0.0229
     14 C         2.462803   -3.069301   -6.43766 C.2        1 UNL1     0.1740
     15 C         3.496368   -2.137187   -6.998424 C.3        1 UNL1     0.0520
     16 C         3.776766   -1.052387   -5.967627 C.3        1 UNL1     0.1322
     17 O         2.575949   -0.30729   -5.667731 O.3        1 UNL1     -0.4828
     18 C         4.536429   -1.553402   -4.736928 C.ar        1 UNL1     -0.0067
     19 C         3.851327   -1.702926   -3.513616 C.ar        1 UNL1     -0.0516
     20 C         4.526286   -2.113494   -2.357836 C.ar        1 UNL1     -0.0198
     21 C         5.884701   -2.369937   -2.410503 C.ar        1 UNL1     0.1169
     22 C         6.580251   -2.263959   -3.607924 C.ar        1 UNL1     -0.0198
     23 C         5.901866   -1.87123   -4.76793 C.ar        1 UNL1     -0.0516
     24 O         6.515627   -2.731107   -1.256428 O.3        1 UNL1     -0.5068
     25 O         2.510673   -4.274571   -6.668997 O.2        1 UNL1     -0.2917
     26 O         0.092183   -4.457383   -5.491706 O.3        1 UNL1     -0.5058
     27 O         0.882858   -0.789435   -2.268763 O.3        1 UNL1     -0.3648
     28 O         0.207555   2.037377   -0.129773 O.3        1 UNL1     -0.3841
     29 O         -2.364827   -0.391575   -0.707608 O.3        1 UNL1     -0.3863
     30 O         -1.938733   2.985262   -2.091634 O.3        1 UNL1     -0.3829
     31 H         1.523496   1.064862   -1.909385 H        1 UNL1     0.0937
     32 H         0.0   0.0   0.0 H        1 UNL1     0.0671
     33 H         -2.148826   1.514169   -0.071036 H        1 UNL1     0.0649
     34 H         -3.241622   1.423988   -2.36883 H        1 UNL1     0.0683
     35 H         -1.664141   1.70171   -4.225891 H        1 UNL1     0.1085
     36 H         -1.709788   -3.028243   -4.38818 H        1 UNL1     0.0691
     37 H         0.502966   0.674324   -4.546034 H        1 UNL1     0.0691
     38 H         3.090674   -1.709521   -7.921485 H        1 UNL1     0.0385
     39 H         4.395302   -2.709087   -7.252639 H        1 UNL1     0.0385
     40 H         4.443311   -0.31951   -6.442107 H        1 UNL1     0.0789
     41 H         2.786802   -1.49896   -3.444093 H        1 UNL1     0.0623
     42 H         3.989228   -2.213613   -1.41786 H        1 UNL1     0.0654
     43 H         7.641127   -2.476899   -3.663677 H        1 UNL1     0.0654
     44 H         6.474535   -1.809039   -5.688271 H        1 UNL1     0.0623
     45 H         7.103174   -2.006122   -0.988281 H        1 UNL1     0.2921
     46 H         0.953828   -4.829748   -5.737313 H        1 UNL1     0.2922
     47 H         0.488782   -1.090868   -3.099247 H        1 UNL1     0.2126
     48 H         0.994805   1.827843   0.408804 H        1 UNL1     0.2101
     49 H         -3.049456   -0.528755   -1.381595 H        1 UNL1     0.2100
     50 H         -1.767718   3.193881   -1.149856 H        1 UNL1     0.2102
@<TRIPOS>BOND
     1     1     2    1
     2     1     6    1
     3     2     3    1
     4     3     4    1
     5     3    29    1
     6     3    33    1
     7     4     5    1
     8     5     6    1
     9     5     7    1
    10     5    35    1
    11     7     8    1
    12     8     9   ar
    13     8    13   ar
    14     9    10   ar
    15     9    36    1
    16    10    11   ar
    17    10    26    1
    18    11    12   ar
    19    11    14    1
    20    12    13   ar
    21    12    17    1
    22    13    37    1
    23    14    15    1
    24    14    25    2
    25    15    16    1
    26    15    38    1
    27    15    39    1
    28    16    17    1
    29    16    18    1
    30    16    40    1
    31    18    19   ar
    32    18    23   ar
    33    19    20   ar
    34    19    41    1
    35    20    21   ar
    36    20    42    1
    37    21    22   ar
    38    21    24    1
    39    22    23   ar
    40    22    43    1
    41    23    44    1
    42    24    45    1
    43    26    46    1
    44    27    47    1
    45    28    48    1
    46    29    49    1
    47    30    50    1
    48     1    31    1
    49     1    27    1
    50     2    32    1
    51     2    28    1
    52     4    34    1
    53     4    30    1
