@<TRIPOS>MOLECULE
*****
 50 53 0 0 0
SMALL
GASTEIGER

@<TRIPOS>ATOM
     1 C         -0.449608   -1.871979   1.031675 C.3        1 UNL1     0.1889
     2 C         -0.791961   -0.409537   0.639248 C.3        1 UNL1     0.1342
     3 C         -1.016394   0.53759   1.827964 C.3        1 UNL1     0.1174
     4 C         -1.681135   -0.15419   3.020724 C.3        1 UNL1     0.1456
     5 C         -1.032932   -1.510651   3.352707 C.3        1 UNL1     0.2326
     6 O         -1.073701   -2.361628   2.209447 O.3        1 UNL1     -0.3076
     7 O         0.282887   -1.392729   3.923704 O.3        1 UNL1     -0.4605
     8 C         1.142968   -2.45021   3.688072 C.ar        1 UNL1     0.1310
     9 C         2.509439   -2.465616   3.98777 C.ar        1 UNL1     0.0226
     10 C         3.295132   -3.594337   3.725893 C.ar        1 UNL1     0.1343
     11 C         2.727893   -4.744718   3.179355 C.ar        1 UNL1     0.1007
     12 C         1.37295   -4.726972   2.837892 C.ar        1 UNL1     0.1389
     13 C         0.583719   -3.590998   3.098867 C.ar        1 UNL1     0.0229
     14 C         3.493263   -5.993771   2.959742 C.2        1 UNL1     0.1740
     15 C         2.67968   -7.194881   2.576382 C.3        1 UNL1     0.0520
     16 C         1.601458   -6.753596   1.596248 C.3        1 UNL1     0.1322
     17 O         0.736607   -5.764278   2.196542 O.3        1 UNL1     -0.4828
     18 C         2.142389   -6.370015   0.216761 C.ar        1 UNL1     -0.0067
     19 C         2.194279   -5.010372   -0.153227 C.ar        1 UNL1     -0.0516
     20 C         2.638918   -4.628362   -1.424576 C.ar        1 UNL1     -0.0198
     21 C         3.026556   -5.594701   -2.335484 C.ar        1 UNL1     0.1169
     22 C         3.018353   -6.939568   -1.988924 C.ar        1 UNL1     -0.0198
     23 C         2.59124   -7.320643   -0.711265 C.ar        1 UNL1     -0.0516
     24 O         3.417836   -5.187313   -3.57699 O.3        1 UNL1     -0.5068
     25 O         4.702956   -6.087819   3.150224 O.2        1 UNL1     -0.2917
     26 O         4.62177   -3.544408   4.040729 O.3        1 UNL1     -0.5058
     27 O         0.941808   -2.148863   1.022408 O.3        1 UNL1     -0.3648
     28 O         -2.004434   -0.417497   -0.136994 O.3        1 UNL1     -0.3841
     29 O         0.197096   1.204679   2.180905 O.3        1 UNL1     -0.3863
     30 O         -3.078777   -0.367436   2.726084 O.3        1 UNL1     -0.3829
     31 H         -0.857091   -2.511568   0.24113 H        1 UNL1     0.0937
     32 H         0.0   0.0   0.0 H        1 UNL1     0.0671
     33 H         -1.701032   1.331903   1.499244 H        1 UNL1     0.0649
     34 H         -1.634773   0.494284   3.902616 H        1 UNL1     0.0683
     35 H         -1.705261   -1.949076   4.100795 H        1 UNL1     0.1085
     36 H         2.998052   -1.623271   4.465087 H        1 UNL1     0.0691
     37 H         -0.46844   -3.602113   2.822585 H        1 UNL1     0.0691
     38 H         2.238177   -7.601901   3.492317 H        1 UNL1     0.0385
     39 H         3.341906   -7.955337   2.148663 H        1 UNL1     0.0385
     40 H         0.948515   -7.619491   1.421863 H        1 UNL1     0.0789
     41 H         1.886807   -4.233329   0.540542 H        1 UNL1     0.0623
     42 H         2.663064   -3.577453   -1.702098 H        1 UNL1     0.0654
     43 H         3.334057   -7.703524   -2.689361 H        1 UNL1     0.0654
     44 H         2.607778   -8.379308   -0.47085 H        1 UNL1     0.0623
     45 H         3.040998   -5.796367   -4.232554 H        1 UNL1     0.2921
     46 H         5.08164   -4.289783   3.623179 H        1 UNL1     0.2922
     47 H         1.431886   -1.390056   0.676149 H        1 UNL1     0.2126
     48 H         -2.599219   -1.070242   0.280002 H        1 UNL1     0.2101
     49 H         0.293457   1.225549   3.146344 H        1 UNL1     0.2100
     50 H         -3.150505   -1.170624   2.169795 H        1 UNL1     0.2102
@<TRIPOS>BOND
     1     1     2    1
     2     1     6    1
     3     2     3    1
     4     3     4    1
     5     3    29    1
     6     3    33    1
     7     4     5    1
     8     5     6    1
     9     5     7    1
    10     5    35    1
    11     7     8    1
    12     8     9   ar
    13     8    13   ar
    14     9    10   ar
    15     9    36    1
    16    10    11   ar
    17    10    26    1
    18    11    12   ar
    19    11    14    1
    20    12    13   ar
    21    12    17    1
    22    13    37    1
    23    14    15    1
    24    14    25    2
    25    15    16    1
    26    15    38    1
    27    15    39    1
    28    16    17    1
    29    16    18    1
    30    16    40    1
    31    18    19   ar
    32    18    23   ar
    33    19    20   ar
    34    19    41    1
    35    20    21   ar
    36    20    42    1
    37    21    22   ar
    38    21    24    1
    39    22    23   ar
    40    22    43    1
    41    23    44    1
    42    24    45    1
    43    26    46    1
    44    27    47    1
    45    28    48    1
    46    29    49    1
    47    30    50    1
    48     1    31    1
    49     1    27    1
    50     2    32    1
    51     2    28    1
    52     4    34    1
    53     4    30    1
