@<TRIPOS>MOLECULE
*****
 50 53 0 0 0
SMALL
GASTEIGER

@<TRIPOS>ATOM
     1 C         -0.330127   -1.327106   1.703118 C.3        1 UNL1     0.1889
     2 C         -0.461546   -0.975615   0.196757 C.3        1 UNL1     0.1342
     3 C         -1.902621   -0.964761   -0.335831 C.3        1 UNL1     0.1174
     4 C         -2.787742   -2.024189   0.325448 C.3        1 UNL1     0.1456
     5 C         -2.635443   -2.048048   1.857309 C.3        1 UNL1     0.2326
     6 O         -1.270213   -2.264664   2.206724 O.3        1 UNL1     -0.3076
     7 O         -3.211056   -0.900911   2.508514 O.3        1 UNL1     -0.4605
     8 C         -3.498573   -1.048182   3.853569 C.ar        1 UNL1     0.1310
     9 C         -4.142181   -2.149155   4.428832 C.ar        1 UNL1     0.0226
     10 C         -4.373504   -2.212936   5.80808 C.ar        1 UNL1     0.1343
     11 C         -3.94512   -1.187046   6.649435 C.ar        1 UNL1     0.1007
     12 C         -3.337957   -0.063754   6.081673 C.ar        1 UNL1     0.1389
     13 C         -3.107846   0.001333   4.694503 C.ar        1 UNL1     0.0229
     14 C         -4.088504   -1.241045   8.122757 C.2        1 UNL1     0.1740
     15 C         -3.375974   -0.162283   8.884414 C.3        1 UNL1     0.0520
     16 C         -3.538902   1.149201   8.12849 C.3        1 UNL1     0.1322
     17 O         -2.974545   1.050198   6.802304 O.3        1 UNL1     -0.4828
     18 C         -4.96121   1.712987   8.172174 C.ar        1 UNL1     -0.0067
     19 C         -5.576332   2.13405   6.975284 C.ar        1 UNL1     -0.0516
     20 C         -6.857647   2.698036   6.985965 C.ar        1 UNL1     -0.0198
     21 C         -7.529771   2.852788   8.185185 C.ar        1 UNL1     0.1169
     22 C         -6.96394   2.417115   9.376345 C.ar        1 UNL1     -0.0198
     23 C         -5.690194   1.836195   9.363726 C.ar        1 UNL1     -0.0516
     24 O         -8.760259   3.44076   8.160892 O.3        1 UNL1     -0.5068
     25 O         -4.677934   -2.143124   8.712089 O.2        1 UNL1     -0.2917
     26 O         -5.007261   -3.313867   6.305964 O.3        1 UNL1     -0.5058
     27 O         -0.225404   -0.188054   2.542393 O.3        1 UNL1     -0.3648
     28 O         0.269468   -1.95411   -0.565393 O.3        1 UNL1     -0.3841
     29 O         -2.461121   0.348459   -0.260584 O.3        1 UNL1     -0.3863
     30 O         -2.439338   -3.325156   -0.195887 O.3        1 UNL1     -0.3829
     31 H         0.631017   -1.839066   1.822191 H        1 UNL1     0.0937
     32 H         0.0   0.0   0.0 H        1 UNL1     0.0671
     33 H         -1.865876   -1.205222   -1.407535 H        1 UNL1     0.0649
     34 H         -3.838124   -1.846953   0.069155 H        1 UNL1     0.0683
     35 H         -3.189281   -2.944104   2.164271 H        1 UNL1     0.1085
     36 H         -4.449247   -3.003901   3.836177 H        1 UNL1     0.0691
     37 H         -2.634278   0.88733   4.277087 H        1 UNL1     0.0691
     38 H         -2.321251   -0.448637   8.955744 H        1 UNL1     0.0385
     39 H         -3.785305   -0.109001   9.899002 H        1 UNL1     0.0385
     40 H         -2.914558   1.895938   8.637508 H        1 UNL1     0.0789
     41 H         -5.06588   2.031799   6.022061 H        1 UNL1     0.0623
     42 H         -7.316431   3.029759   6.057801 H        1 UNL1     0.0654
     43 H         -7.48769   2.519735   10.319248 H        1 UNL1     0.0654
     44 H         -5.282972   1.497427   10.311487 H        1 UNL1     0.0623
     45 H         -8.664446   4.337912   7.802207 H        1 UNL1     0.2921
     46 H         -4.451084   -3.72808   6.98457 H        1 UNL1     0.2922
     47 H         0.517096   0.36597   2.263807 H        1 UNL1     0.2126
     48 H         1.202335   -1.887744   -0.28417 H        1 UNL1     0.2101
     49 H         -2.023022   0.930626   -0.901633 H        1 UNL1     0.2100
     50 H         -2.672996   -3.341241   -1.147127 H        1 UNL1     0.2102
@<TRIPOS>BOND
     1     1     2    1
     2     1     6    1
     3     2     3    1
     4     3     4    1
     5     3    29    1
     6     3    33    1
     7     4     5    1
     8     5     6    1
     9     5     7    1
    10     5    35    1
    11     7     8    1
    12     8     9   ar
    13     8    13   ar
    14     9    10   ar
    15     9    36    1
    16    10    11   ar
    17    10    26    1
    18    11    12   ar
    19    11    14    1
    20    12    13   ar
    21    12    17    1
    22    13    37    1
    23    14    15    1
    24    14    25    2
    25    15    16    1
    26    15    38    1
    27    15    39    1
    28    16    17    1
    29    16    18    1
    30    16    40    1
    31    18    19   ar
    32    18    23   ar
    33    19    20   ar
    34    19    41    1
    35    20    21   ar
    36    20    42    1
    37    21    22   ar
    38    21    24    1
    39    22    23   ar
    40    22    43    1
    41    23    44    1
    42    24    45    1
    43    26    46    1
    44    27    47    1
    45    28    48    1
    46    29    49    1
    47    30    50    1
    48     1    31    1
    49     1    27    1
    50     2    32    1
    51     2    28    1
    52     4    34    1
    53     4    30    1
