@<TRIPOS>MOLECULE
*****
 50 53 0 0 0
SMALL
GASTEIGER

@<TRIPOS>ATOM
     1 C         -0.430466   -0.804984   -1.984314 C.3        1 UNL1     0.1889
     2 C         0.246439   -0.891509   -0.58995 C.3        1 UNL1     0.1342
     3 C         1.772949   -1.061255   -0.627616 C.3        1 UNL1     0.1174
     4 C         2.246486   -1.912569   -1.808355 C.3        1 UNL1     0.1456
     5 C         1.580785   -1.50397   -3.1351 C.3        1 UNL1     0.2326
     6 O         0.162578   -1.584583   -3.012381 O.3        1 UNL1     -0.3076
     7 O         2.034063   -0.233313   -3.636388 O.3        1 UNL1     -0.4605
     8 C         1.424032   0.214031   -4.794521 C.ar        1 UNL1     0.1310
     9 C         0.391049   -0.442703   -5.471977 C.ar        1 UNL1     0.0226
     10 C         -0.174702   0.101261   -6.631258 C.ar        1 UNL1     0.1343
     11 C         0.263066   1.328104   -7.128306 C.ar        1 UNL1     0.1007
     12 C         1.321851   1.973366   -6.483794 C.ar        1 UNL1     0.1389
     13 C         1.892328   1.424914   -5.31967 C.ar        1 UNL1     0.0229
     14 C         -0.355709   1.989104   -8.300633 C.2        1 UNL1     0.1740
     15 C         0.087798   3.398879   -8.560218 C.3        1 UNL1     0.0520
     16 C         1.587484   3.485511   -8.312443 C.3        1 UNL1     0.1322
     17 O         1.903171   3.130392   -6.948147 O.3        1 UNL1     -0.4828
     18 C         2.42901   2.762736   -9.36703 C.ar        1 UNL1     -0.0067
     19 C         2.480688   1.353644   -9.365182 C.ar        1 UNL1     -0.0516
     20 C         3.277837   0.662873   -10.285699 C.ar        1 UNL1     -0.0198
     21 C         4.031987   1.368297   -11.206277 C.ar        1 UNL1     0.1169
     22 C         3.976138   2.755157   -11.254645 C.ar        1 UNL1     -0.0198
     23 C         3.164805   3.445502   -10.346229 C.ar        1 UNL1     -0.0516
     24 O         4.825582   0.662793   -12.062356 O.3        1 UNL1     -0.5068
     25 O         -1.234792   1.470127   -8.98354 O.2        1 UNL1     -0.2917
     26 O         -1.178226   -0.589837   -7.245186 O.3        1 UNL1     -0.5058
     27 O         -0.67667   0.525255   -2.411671 O.3        1 UNL1     -0.3648
     28 O         -0.293816   -2.027926   0.109613 O.3        1 UNL1     -0.3841
     29 O         2.426019   0.208202   -0.563496 O.3        1 UNL1     -0.3863
     30 O         1.942507   -3.299518   -1.544427 O.3        1 UNL1     -0.3829
     31 H         -1.428927   -1.242257   -1.875017 H        1 UNL1     0.0937
     32 H         0.0   0.0   0.0 H        1 UNL1     0.0671
     33 H         2.074139   -1.590842   0.287011 H        1 UNL1     0.0649
     34 H         3.334633   -1.836889   -1.911354 H        1 UNL1     0.0683
     35 H         1.885397   -2.290311   -3.837068 H        1 UNL1     0.1085
     36 H         -0.031315   -1.371692   -5.104951 H        1 UNL1     0.0691
     37 H         2.716261   1.946342   -4.837238 H        1 UNL1     0.0691
     38 H         -0.464051   4.051155   -7.874999 H        1 UNL1     0.0385
     39 H         -0.17912   3.676054   -9.585746 H        1 UNL1     0.0385
     40 H         1.868159   4.544443   -8.392475 H        1 UNL1     0.0789
     41 H         1.905159   0.777192   -8.646768 H        1 UNL1     0.0623
     42 H         3.318449   -0.423401   -10.266448 H        1 UNL1     0.0654
     43 H         4.550998   3.316892   -11.981211 H        1 UNL1     0.0654
     44 H         3.137102   4.528421   -10.419465 H        1 UNL1     0.0623
     45 H         5.751693   0.798264   -11.804125 H        1 UNL1     0.2921
     46 H         -1.018517   -0.610481   -8.201992 H        1 UNL1     0.2922
     47 H         -1.198273   0.998794   -1.748685 H        1 UNL1     0.2126
     48 H         -0.780246   -1.67667   0.880156 H        1 UNL1     0.2101
     49 H         1.948727   0.852833   -1.109789 H        1 UNL1     0.2100
     50 H         2.60237   -3.848038   -2.017099 H        1 UNL1     0.2102
@<TRIPOS>BOND
     1     1     2    1
     2     1     6    1
     3     2     3    1
     4     3     4    1
     5     3    29    1
     6     3    33    1
     7     4     5    1
     8     5     6    1
     9     5     7    1
    10     5    35    1
    11     7     8    1
    12     8     9   ar
    13     8    13   ar
    14     9    10   ar
    15     9    36    1
    16    10    11   ar
    17    10    26    1
    18    11    12   ar
    19    11    14    1
    20    12    13   ar
    21    12    17    1
    22    13    37    1
    23    14    15    1
    24    14    25    2
    25    15    16    1
    26    15    38    1
    27    15    39    1
    28    16    17    1
    29    16    18    1
    30    16    40    1
    31    18    19   ar
    32    18    23   ar
    33    19    20   ar
    34    19    41    1
    35    20    21   ar
    36    20    42    1
    37    21    22   ar
    38    21    24    1
    39    22    23   ar
    40    22    43    1
    41    23    44    1
    42    24    45    1
    43    26    46    1
    44    27    47    1
    45    28    48    1
    46    29    49    1
    47    30    50    1
    48     1    31    1
    49     1    27    1
    50     2    32    1
    51     2    28    1
    52     4    34    1
    53     4    30    1
