@<TRIPOS>MOLECULE
*****
 50 53 0 0 0
SMALL
GASTEIGER

@<TRIPOS>ATOM
     1 C         0.796797   -1.968025   0.512635 C.3        1 UNL1     0.1889
     2 C         -0.36462   -0.941304   0.429604 C.3        1 UNL1     0.1342
     3 C         -1.05641   -0.645952   1.769253 C.3        1 UNL1     0.1174
     4 C         -1.127074   -1.871535   2.683622 C.3        1 UNL1     0.1456
     5 C         0.214264   -2.622479   2.768818 C.3        1 UNL1     0.2326
     6 O         0.637935   -3.010311   1.463844 O.3        1 UNL1     -0.3076
     7 O         1.225335   -1.908412   3.503096 O.3        1 UNL1     -0.4605
     8 C         1.195987   -0.529955   3.391188 C.ar        1 UNL1     0.1310
     9 C         0.482832   0.335926   4.227226 C.ar        1 UNL1     0.0226
     10 C         0.530566   1.722846   4.042624 C.ar        1 UNL1     0.1343
     11 C         1.312354   2.279394   3.031238 C.ar        1 UNL1     0.1007
     12 C         1.996395   1.422933   2.164436 C.ar        1 UNL1     0.1389
     13 C         1.946133   0.028307   2.348622 C.ar        1 UNL1     0.0229
     14 C         1.465598   3.740731   2.843716 C.2        1 UNL1     0.1740
     15 C         2.513972   4.162227   1.856395 C.3        1 UNL1     0.0520
     16 C         2.457071   3.22028   0.661633 C.3        1 UNL1     0.1322
     17 O         2.708211   1.857637   1.070536 O.3        1 UNL1     -0.4828
     18 C         1.210472   3.402225   -0.207626 C.ar        1 UNL1     -0.0067
     19 C         1.338014   3.973702   -1.490342 C.ar        1 UNL1     -0.0516
     20 C         0.2124   4.197726   -2.292072 C.ar        1 UNL1     -0.0198
     21 C         -1.044178   3.862182   -1.82064 C.ar        1 UNL1     0.1169
     22 C         -1.198529   3.267059   -0.575312 C.ar        1 UNL1     -0.0198
     23 C         -0.071216   3.025964   0.219103 C.ar        1 UNL1     -0.0516
     24 O         -2.120772   4.129926   -2.614151 O.3        1 UNL1     -0.5068
     25 O         0.845827   4.575036   3.498165 O.2        1 UNL1     -0.2917
     26 O         -0.188951   2.512089   4.891726 O.3        1 UNL1     -0.5058
     27 O         2.078146   -1.365952   0.604496 O.3        1 UNL1     -0.3648
     28 O         -1.366999   -1.457921   -0.46541 O.3        1 UNL1     -0.3841
     29 O         -0.463474   0.48702   2.407166 O.3        1 UNL1     -0.3863
     30 O         -2.135178   -2.777336   2.184681 O.3        1 UNL1     -0.3829
     31 H         0.815652   -2.49724   -0.446352 H        1 UNL1     0.0937
     32 H         0.0   0.0   0.0 H        1 UNL1     0.0671
     33 H         -2.092619   -0.350212   1.553546 H        1 UNL1     0.0649
     34 H         -1.437183   -1.569783   3.690189 H        1 UNL1     0.0683
     35 H         -0.032411   -3.543896   3.311055 H        1 UNL1     0.1085
     36 H         -0.098544   -0.031299   5.065836 H        1 UNL1     0.0691
     37 H         2.486773   -0.616867   1.659454 H        1 UNL1     0.0691
     38 H         3.485119   4.10394   2.359388 H        1 UNL1     0.0385
     39 H         2.339007   5.204961   1.570261 H        1 UNL1     0.0385
     40 H         3.304859   3.472124   0.010211 H        1 UNL1     0.0789
     41 H         2.312414   4.254234   -1.879567 H        1 UNL1     0.0623
     42 H         0.322566   4.650018   -3.274572 H        1 UNL1     0.0654
     43 H         -2.176421   2.986535   -0.202558 H        1 UNL1     0.0654
     44 H         -0.227682   2.549744   1.182212 H        1 UNL1     0.0623
     45 H         -2.655938   4.81622   -2.18367 H        1 UNL1     0.2921
     46 H         -0.905246   2.945727   4.40153 H        1 UNL1     0.2922
     47 H         2.455374   -1.513854   1.482952 H        1 UNL1     0.2126
     48 H         -1.602642   -2.347316   -0.138025 H        1 UNL1     0.2101
     49 H         0.32488   0.212144   2.901873 H        1 UNL1     0.2100
     50 H         -2.664556   -3.089185   2.947715 H        1 UNL1     0.2102
@<TRIPOS>BOND
     1     1     2    1
     2     1     6    1
     3     2     3    1
     4     3     4    1
     5     3    29    1
     6     3    33    1
     7     4     5    1
     8     5     6    1
     9     5     7    1
    10     5    35    1
    11     7     8    1
    12     8     9   ar
    13     8    13   ar
    14     9    10   ar
    15     9    36    1
    16    10    11   ar
    17    10    26    1
    18    11    12   ar
    19    11    14    1
    20    12    13   ar
    21    12    17    1
    22    13    37    1
    23    14    15    1
    24    14    25    2
    25    15    16    1
    26    15    38    1
    27    15    39    1
    28    16    17    1
    29    16    18    1
    30    16    40    1
    31    18    19   ar
    32    18    23   ar
    33    19    20   ar
    34    19    41    1
    35    20    21   ar
    36    20    42    1
    37    21    22   ar
    38    21    24    1
    39    22    23   ar
    40    22    43    1
    41    23    44    1
    42    24    45    1
    43    26    46    1
    44    27    47    1
    45    28    48    1
    46    29    49    1
    47    30    50    1
    48     1    31    1
    49     1    27    1
    50     2    32    1
    51     2    28    1
    52     4    34    1
    53     4    30    1
