@<TRIPOS>MOLECULE
*****
 50 53 0 0 0
SMALL
GASTEIGER

@<TRIPOS>ATOM
     1 C         -0.371003   -1.39752   1.637101 C.3        1 UNL1     0.1889
     2 C         -0.48792   -0.97124   0.148963 C.3        1 UNL1     0.1342
     3 C         -1.926376   -0.896613   -0.385583 C.3        1 UNL1     0.1174
     4 C         -2.841526   -1.962398   0.222462 C.3        1 UNL1     0.1456
     5 C         -2.695137   -2.063307   1.75176 C.3        1 UNL1     0.2326
     6 O         -1.337328   -2.332636   2.093355 O.3        1 UNL1     -0.3076
     7 O         -3.242348   -0.933588   2.45576 O.3        1 UNL1     -0.4605
     8 C         -3.771639   -1.197007   3.706356 C.ar        1 UNL1     0.1310
     9 C         -4.620805   -2.264139   4.018521 C.ar        1 UNL1     0.0226
     10 C         -5.091877   -2.456605   5.322726 C.ar        1 UNL1     0.1343
     11 C         -4.705695   -1.599488   6.352315 C.ar        1 UNL1     0.1007
     12 C         -3.89107   -0.50651   6.044794 C.ar        1 UNL1     0.1389
     13 C         -3.419675   -0.311682   4.732826 C.ar        1 UNL1     0.0229
     14 C         -5.105819   -1.804646   7.763685 C.2        1 UNL1     0.1740
     15 C         -4.421965   -0.923165   8.76712 C.3        1 UNL1     0.0520
     16 C         -4.308333   0.477011   8.180134 C.3        1 UNL1     0.1322
     17 O         -3.538098   0.459749   6.958041 O.3        1 UNL1     -0.4828
     18 C         -5.646875   1.211986   8.076019 C.ar        1 UNL1     -0.0067
     19 C         -5.893677   2.322706   8.908848 C.ar        1 UNL1     -0.0516
     20 C         -7.124853   2.988182   8.872633 C.ar        1 UNL1     -0.0198
     21 C         -8.117736   2.549135   8.015168 C.ar        1 UNL1     0.1169
     22 C         -7.892856   1.479013   7.158951 C.ar        1 UNL1     -0.0198
     23 C         -6.655277   0.824848   7.181791 C.ar        1 UNL1     -0.0516
     24 O         -9.317028   3.198533   8.034693 O.3        1 UNL1     -0.5068
     25 O         -5.8827   -2.684591   8.125124 O.2        1 UNL1     -0.2917
     26 O         -5.918061   -3.516015   5.560751 O.3        1 UNL1     -0.5058
     27 O         -0.238978   -0.302969   2.530026 O.3        1 UNL1     -0.3648
     28 O         0.219487   -1.93142   -0.657471 O.3        1 UNL1     -0.3841
     29 O         -2.450114   0.425943   -0.248916 O.3        1 UNL1     -0.3863
     30 O         -2.525963   -3.245854   -0.359647 O.3        1 UNL1     -0.3829
     31 H         0.575817   -1.940004   1.733651 H        1 UNL1     0.0937
     32 H         0.0   0.0   0.0 H        1 UNL1     0.0671
     33 H         -1.892366   -1.086603   -1.467464 H        1 UNL1     0.0649
     34 H         -3.885959   -1.745219   -0.027323 H        1 UNL1     0.0683
     35 H         -3.273581   -2.957901   2.014403 H        1 UNL1     0.1085
     36 H         -4.912425   -2.997293   3.274502 H        1 UNL1     0.0691
     37 H         -2.787599   0.547577   4.519176 H        1 UNL1     0.0691
     38 H         -3.432881   -1.350489   8.963676 H        1 UNL1     0.0385
     39 H         -4.991718   -0.934991   9.702545 H        1 UNL1     0.0385
     40 H         -3.703453   1.072254   8.877506 H        1 UNL1     0.0789
     41 H         -5.133827   2.681152   9.597175 H        1 UNL1     0.0623
     42 H         -7.307226   3.836042   9.52829 H        1 UNL1     0.0654
     43 H         -8.658161   1.136346   6.472803 H        1 UNL1     0.0654
     44 H         -6.510471   -0.000769   6.491695 H        1 UNL1     0.0623
     45 H         -9.34352   3.816274   7.286087 H        1 UNL1     0.2921
     46 H         -5.511618   -4.326988   5.216454 H        1 UNL1     0.2922
     47 H         0.630373   0.109053   2.428399 H        1 UNL1     0.2126
     48 H         0.053792   -1.690311   -1.589213 H        1 UNL1     0.2101
     49 H         -2.998707   0.482764   0.54959 H        1 UNL1     0.2100
     50 H         -1.991388   -3.748181   0.289668 H        1 UNL1     0.2102
@<TRIPOS>BOND
     1     1     2    1
     2     1     6    1
     3     2     3    1
     4     3     4    1
     5     3    29    1
     6     3    33    1
     7     4     5    1
     8     5     6    1
     9     5     7    1
    10     5    35    1
    11     7     8    1
    12     8     9   ar
    13     8    13   ar
    14     9    10   ar
    15     9    36    1
    16    10    11   ar
    17    10    26    1
    18    11    12   ar
    19    11    14    1
    20    12    13   ar
    21    12    17    1
    22    13    37    1
    23    14    15    1
    24    14    25    2
    25    15    16    1
    26    15    38    1
    27    15    39    1
    28    16    17    1
    29    16    18    1
    30    16    40    1
    31    18    19   ar
    32    18    23   ar
    33    19    20   ar
    34    19    41    1
    35    20    21   ar
    36    20    42    1
    37    21    22   ar
    38    21    24    1
    39    22    23   ar
    40    22    43    1
    41    23    44    1
    42    24    45    1
    43    26    46    1
    44    27    47    1
    45    28    48    1
    46    29    49    1
    47    30    50    1
    48     1    31    1
    49     1    27    1
    50     2    32    1
    51     2    28    1
    52     4    34    1
    53     4    30    1
