@<TRIPOS>MOLECULE
*****
 50 53 0 0 0
SMALL
GASTEIGER

@<TRIPOS>ATOM
     1 C         1.244919   0.973656   -1.507638 C.3        1 UNL1     0.1889
     2 C         -0.106709   0.384477   -1.021936 C.3        1 UNL1     0.1342
     3 C         -0.68158   -0.724114   -1.91693 C.3        1 UNL1     0.1174
     4 C         -0.386271   -0.500683   -3.402187 C.3        1 UNL1     0.1456
     5 C         1.082719   -0.119327   -3.66103 C.3        1 UNL1     0.2326
     6 O         1.420701   1.047608   -2.914773 O.3        1 UNL1     -0.3076
     7 O         2.002027   -1.207645   -3.456682 O.3        1 UNL1     -0.4605
     8 C         2.815404   -1.523775   -4.529997 C.ar        1 UNL1     0.1310
     9 C         2.43182   -2.28117   -5.641985 C.ar        1 UNL1     0.0226
     10 C         3.326028   -2.5334   -6.689208 C.ar        1 UNL1     0.1343
     11 C         4.619486   -2.013781   -6.660898 C.ar        1 UNL1     0.1007
     12 C         5.027017   -1.29049   -5.536819 C.ar        1 UNL1     0.1389
     13 C         4.128537   -1.039242   -4.482761 C.ar        1 UNL1     0.0229
     14 C         5.578187   -2.17861   -7.777982 C.2        1 UNL1     0.1740
     15 C         6.838191   -1.370083   -7.676872 C.3        1 UNL1     0.0520
     16 C         7.309799   -1.391907   -6.229437 C.3        1 UNL1     0.1322
     17 O         6.308788   -0.825294   -5.355369 O.3        1 UNL1     -0.4828
     18 C         7.850353   -2.75083   -5.777934 C.ar        1 UNL1     -0.0067
     19 C         8.588262   -2.839199   -4.579646 C.ar        1 UNL1     -0.0516
     20 C         9.137033   -4.057615   -4.162183 C.ar        1 UNL1     -0.0198
     21 C         8.961605   -5.190773   -4.936138 C.ar        1 UNL1     0.1169
     22 C         8.21158   -5.142467   -6.104028 C.ar        1 UNL1     -0.0198
     23 C         7.647113   -3.928059   -6.51225 C.ar        1 UNL1     -0.0516
     24 O         9.542666   -6.351426   -4.517029 O.3        1 UNL1     -0.5068
     25 O         5.34725   -2.862295   -8.771827 O.2        1 UNL1     -0.2917
     26 O         2.889875   -3.28011   -7.744566 O.3        1 UNL1     -0.5058
     27 O         2.374045   0.400086   -0.868201 O.3        1 UNL1     -0.3648
     28 O         -1.077794   1.446453   -0.978244 O.3        1 UNL1     -0.3841
     29 O         -0.267028   -2.012365   -1.45792 O.3        1 UNL1     -0.3863
     30 O         -1.234856   0.556515   -3.900106 O.3        1 UNL1     -0.3829
     31 H         1.260317   2.022624   -1.19219 H        1 UNL1     0.0937
     32 H         0.0   -0.0   0.0 H        1 UNL1     0.0671
     33 H         -1.774763   -0.712357   -1.804985 H        1 UNL1     0.0649
     34 H         -0.631316   -1.403709   -3.972185 H        1 UNL1     0.0683
     35 H         1.099675   0.163868   -4.720932 H        1 UNL1     0.1085
     36 H         1.423536   -2.665739   -5.749645 H        1 UNL1     0.0691
     37 H         4.470744   -0.474397   -3.618275 H        1 UNL1     0.0691
     38 H         6.604205   -0.350319   -8.000691 H        1 UNL1     0.0385
     39 H         7.585928   -1.78351   -8.362252 H        1 UNL1     0.0385
     40 H         8.161006   -0.701577   -6.155886 H        1 UNL1     0.0789
     41 H         8.747839   -1.962217   -3.959091 H        1 UNL1     0.0623
     42 H         9.714131   -4.110395   -3.242301 H        1 UNL1     0.0654
     43 H         8.055288   -6.027003   -6.7099 H        1 UNL1     0.0654
     44 H         7.05824   -3.929076   -7.42443 H        1 UNL1     0.0623
     45 H         9.57507   -6.345219   -3.546654 H        1 UNL1     0.2921
     46 H         3.098624   -2.821376   -8.573661 H        1 UNL1     0.2922
     47 H         2.681934   -0.372629   -1.36214 H        1 UNL1     0.2126
     48 H         -0.952716   1.904891   -0.125061 H        1 UNL1     0.2101
     49 H         -0.211525   -2.015368   -0.489052 H        1 UNL1     0.2100
     50 H         -2.071662   0.53643   -3.39112 H        1 UNL1     0.2102
@<TRIPOS>BOND
     1     1     2    1
     2     1     6    1
     3     2     3    1
     4     3     4    1
     5     3    29    1
     6     3    33    1
     7     4     5    1
     8     5     6    1
     9     5     7    1
    10     5    35    1
    11     7     8    1
    12     8     9   ar
    13     8    13   ar
    14     9    10   ar
    15     9    36    1
    16    10    11   ar
    17    10    26    1
    18    11    12   ar
    19    11    14    1
    20    12    13   ar
    21    12    17    1
    22    13    37    1
    23    14    15    1
    24    14    25    2
    25    15    16    1
    26    15    38    1
    27    15    39    1
    28    16    17    1
    29    16    18    1
    30    16    40    1
    31    18    19   ar
    32    18    23   ar
    33    19    20   ar
    34    19    41    1
    35    20    21   ar
    36    20    42    1
    37    21    22   ar
    38    21    24    1
    39    22    23   ar
    40    22    43    1
    41    23    44    1
    42    24    45    1
    43    26    46    1
    44    27    47    1
    45    28    48    1
    46    29    49    1
    47    30    50    1
    48     1    31    1
    49     1    27    1
    50     2    32    1
    51     2    28    1
    52     4    34    1
    53     4    30    1
