@<TRIPOS>MOLECULE
*****
 50 53 0 0 0
SMALL
GASTEIGER

@<TRIPOS>ATOM
     1 C         -0.332182   -1.328071   1.701965 C.3        1 UNL1     0.1889
     2 C         -0.462638   -0.975285   0.195823 C.3        1 UNL1     0.1342
     3 C         -1.903489   -0.962524   -0.337327 C.3        1 UNL1     0.1174
     4 C         -2.789974   -2.021539   0.322786 C.3        1 UNL1     0.1456
     5 C         -2.638308   -2.046734   1.854688 C.3        1 UNL1     0.2326
     6 O         -1.273442   -2.265038   2.204478 O.3        1 UNL1     -0.3076
     7 O         -3.212987   -0.899501   2.506548 O.3        1 UNL1     -0.4605
     8 C         -3.722508   -1.114672   3.774466 C.ar        1 UNL1     0.1310
     9 C         -4.538881   -2.187515   4.148423 C.ar        1 UNL1     0.0226
     10 C         -4.991634   -2.327613   5.465727 C.ar        1 UNL1     0.1343
     11 C         -4.619077   -1.410305   6.447352 C.ar        1 UNL1     0.1007
     12 C         -3.837896   -0.312358   6.077144 C.ar        1 UNL1     0.1389
     13 C         -3.384962   -0.17028   4.751966 C.ar        1 UNL1     0.0229
     14 C         -4.99951   -1.555836   7.871517 C.2        1 UNL1     0.1740
     15 C         -4.330335   -0.607466   8.82249 C.3        1 UNL1     0.0520
     16 C         -4.261047   0.764384   8.165844 C.3        1 UNL1     0.1322
     17 O         -3.502682   0.707243   6.937558 O.3        1 UNL1     -0.4828
     18 C         -5.620264   1.456881   8.040536 C.ar        1 UNL1     -0.0067
     19 C         -5.999527   2.019495   6.804479 C.ar        1 UNL1     -0.0516
     20 C         -7.21477   2.701087   6.668171 C.ar        1 UNL1     -0.0198
     21 C         -8.054269   2.832975   7.75981 C.ar        1 UNL1     0.1169
     22 C         -7.723793   2.260976   8.981465 C.ar        1 UNL1     -0.0198
     23 C         -6.517096   1.563432   9.113259 C.ar        1 UNL1     -0.0516
     24 O         -9.211942   3.536033   7.598866 O.3        1 UNL1     -0.5068
     25 O         -5.748294   -2.437393   8.284633 O.2        1 UNL1     -0.2917
     26 O         -5.785976   -3.395808   5.765 O.3        1 UNL1     -0.5058
     27 O         -0.226609   -0.189775   2.542158 O.3        1 UNL1     -0.3648
     28 O         0.267661   -1.953953   -0.56679 O.3        1 UNL1     -0.3841
     29 O         -2.460654   0.351218   -0.26129 O.3        1 UNL1     -0.3863
     30 O         -2.442716   -3.322466   -0.199412 O.3        1 UNL1     -0.3829
     31 H         0.628381   -1.841122   1.821025 H        1 UNL1     0.0937
     32 H         0.0   0.0   0.0 H        1 UNL1     0.0671
     33 H         -1.866569   -1.202199   -1.409201 H        1 UNL1     0.0649
     34 H         -3.840069   -1.843013   0.066214 H        1 UNL1     0.0683
     35 H         -3.193198   -2.94245   2.160742 H        1 UNL1     0.1085
     36 H         -4.817519   -2.964322   3.444823 H        1 UNL1     0.0691
     37 H         -2.778898   0.694056   4.48909 H        1 UNL1     0.0691
     38 H         -3.327983   -0.997646   9.028834 H        1 UNL1     0.0385
     39 H         -4.890323   -0.588193   9.76367 H        1 UNL1     0.0385
     40 H         -3.665948   1.40964   8.826163 H        1 UNL1     0.0789
     41 H         -5.353921   1.937543   5.934923 H        1 UNL1     0.0623
     42 H         -7.490516   3.140801   5.712856 H        1 UNL1     0.0654
     43 H         -8.380804   2.345304   9.838865 H        1 UNL1     0.0654
     44 H         -6.295781   1.120245   10.079411 H        1 UNL1     0.0623
     45 H         -8.985892   4.443512   7.337909 H        1 UNL1     0.2921
     46 H         -5.382012   -3.908254   6.48307 H        1 UNL1     0.2922
     47 H         0.516472   0.363779   2.264186 H        1 UNL1     0.2126
     48 H         1.200605   -1.888285   -0.285658 H        1 UNL1     0.2101
     49 H         -2.021695   0.933422   -0.901718 H        1 UNL1     0.2100
     50 H         -2.676012   -3.337577   -1.150757 H        1 UNL1     0.2102
@<TRIPOS>BOND
     1     1     2    1
     2     1     6    1
     3     2     3    1
     4     3     4    1
     5     3    29    1
     6     3    33    1
     7     4     5    1
     8     5     6    1
     9     5     7    1
    10     5    35    1
    11     7     8    1
    12     8     9   ar
    13     8    13   ar
    14     9    10   ar
    15     9    36    1
    16    10    11   ar
    17    10    26    1
    18    11    12   ar
    19    11    14    1
    20    12    13   ar
    21    12    17    1
    22    13    37    1
    23    14    15    1
    24    14    25    2
    25    15    16    1
    26    15    38    1
    27    15    39    1
    28    16    17    1
    29    16    18    1
    30    16    40    1
    31    18    19   ar
    32    18    23   ar
    33    19    20   ar
    34    19    41    1
    35    20    21   ar
    36    20    42    1
    37    21    22   ar
    38    21    24    1
    39    22    23   ar
    40    22    43    1
    41    23    44    1
    42    24    45    1
    43    26    46    1
    44    27    47    1
    45    28    48    1
    46    29    49    1
    47    30    50    1
    48     1    31    1
    49     1    27    1
    50     2    32    1
    51     2    28    1
    52     4    34    1
    53     4    30    1
