@<TRIPOS>MOLECULE
*****
 50 53 0 0 0
SMALL
GASTEIGER

@<TRIPOS>ATOM
     1 C         -0.369435   -1.398947   1.636237 C.3        1 UNL1     0.1889
     2 C         -0.487517   -0.971509   0.148522 C.3        1 UNL1     0.1342
     3 C         -1.926368   -0.896896   -0.384963 C.3        1 UNL1     0.1174
     4 C         -2.840767   -1.963451   0.222863 C.3        1 UNL1     0.1456
     5 C         -2.693283   -2.065541   1.751977 C.3        1 UNL1     0.2326
     6 O         -1.335155   -2.334726   2.092412 O.3        1 UNL1     -0.3076
     7 O         -3.240352   -0.936557   2.457264 O.3        1 UNL1     -0.4605
     8 C         -3.768692   -1.201141   3.708016 C.ar        1 UNL1     0.1310
     9 C         -4.617312   -2.268785   4.019915 C.ar        1 UNL1     0.0226
     10 C         -5.087418   -2.462442   5.324292 C.ar        1 UNL1     0.1343
     11 C         -4.700783   -1.606033   6.3543 C.ar        1 UNL1     0.1007
     12 C         -3.886709   -0.512558   6.04709 C.ar        1 UNL1     0.1389
     13 C         -3.416287   -0.316532   4.734951 C.ar        1 UNL1     0.0229
     14 C         -5.099863   -1.812446   7.765783 C.2        1 UNL1     0.1740
     15 C         -4.415581   -0.93156   8.769449 C.3        1 UNL1     0.0520
     16 C         -4.302788   0.469121   8.183508 C.3        1 UNL1     0.1322
     17 O         -3.533399   0.453078   6.960867 O.3        1 UNL1     -0.4828
     18 C         -5.641628   1.203768   8.080913 C.ar        1 UNL1     -0.0067
     19 C         -5.656783   2.570797   7.735637 C.ar        1 UNL1     -0.0516
     20 C         -6.860077   3.284152   7.679328 C.ar        1 UNL1     -0.0198
     21 C         -8.051503   2.645155   7.972611 C.ar        1 UNL1     0.1169
     22 C         -8.072285   1.29167   8.283233 C.ar        1 UNL1     -0.0198
     23 C         -6.871023   0.573648   8.3216 C.ar        1 UNL1     -0.0516
     24 O         -9.199377   3.381354   7.944383 O.3        1 UNL1     -0.5068
     25 O         -5.876221   -2.69292   8.127056 O.2        1 UNL1     -0.2917
     26 O         -5.91311   -3.522297   5.562041 O.3        1 UNL1     -0.5058
     27 O         -0.237125   -0.305072   2.529948 O.3        1 UNL1     -0.3648
     28 O         0.219623   -1.930824   -0.659173 O.3        1 UNL1     -0.3841
     29 O         -2.450417   0.425388   -0.24687 O.3        1 UNL1     -0.3863
     30 O         -2.525215   -3.246342   -0.360495 O.3        1 UNL1     -0.3829
     31 H         0.577619   -1.941217   1.731693 H        1 UNL1     0.0937
     32 H         0.0   0.0   0.0 H        1 UNL1     0.0671
     33 H         -1.893052   -1.086008   -1.467019 H        1 UNL1     0.0649
     34 H         -3.885441   -1.746393   -0.026021 H        1 UNL1     0.0683
     35 H         -3.27127   -2.960524   2.014304 H        1 UNL1     0.1085
     36 H         -4.909224   -3.001431   3.275511 H        1 UNL1     0.0691
     37 H         -2.784623   0.543093   4.521551 H        1 UNL1     0.0691
     38 H         -3.42623   -1.358737   8.964974 H        1 UNL1     0.0385
     39 H         -4.984681   -0.944311   9.70526 H        1 UNL1     0.0385
     40 H         -3.697607   1.063991   8.880937 H        1 UNL1     0.0789
     41 H         -4.734081   3.097428   7.509956 H        1 UNL1     0.0623
     42 H         -6.857451   4.340809   7.423437 H        1 UNL1     0.0654
     43 H         -9.001223   0.77783   8.499917 H        1 UNL1     0.0654
     44 H         -6.925525   -0.484751   8.557537 H        1 UNL1     0.0623
     45 H         -9.761958   3.044931   7.228116 H        1 UNL1     0.2921
     46 H         -5.642381   -3.96589   6.381396 H        1 UNL1     0.2922
     47 H         0.509013   0.252452   2.268595 H        1 UNL1     0.2126
     48 H         1.171847   -1.778767   -0.504637 H        1 UNL1     0.2101
     49 H         -2.998472   0.4814   0.552062 H        1 UNL1     0.2100
     50 H         -2.782872   -3.219523   -1.305273 H        1 UNL1     0.2102
@<TRIPOS>BOND
     1     1     2    1
     2     1     6    1
     3     2     3    1
     4     3     4    1
     5     3    29    1
     6     3    33    1
     7     4     5    1
     8     5     6    1
     9     5     7    1
    10     5    35    1
    11     7     8    1
    12     8     9   ar
    13     8    13   ar
    14     9    10   ar
    15     9    36    1
    16    10    11   ar
    17    10    26    1
    18    11    12   ar
    19    11    14    1
    20    12    13   ar
    21    12    17    1
    22    13    37    1
    23    14    15    1
    24    14    25    2
    25    15    16    1
    26    15    38    1
    27    15    39    1
    28    16    17    1
    29    16    18    1
    30    16    40    1
    31    18    19   ar
    32    18    23   ar
    33    19    20   ar
    34    19    41    1
    35    20    21   ar
    36    20    42    1
    37    21    22   ar
    38    21    24    1
    39    22    23   ar
    40    22    43    1
    41    23    44    1
    42    24    45    1
    43    26    46    1
    44    27    47    1
    45    28    48    1
    46    29    49    1
    47    30    50    1
    48     1    31    1
    49     1    27    1
    50     2    32    1
    51     2    28    1
    52     4    34    1
    53     4    30    1
