@<TRIPOS>MOLECULE
*****
 50 53 0 0 0
SMALL
GASTEIGER

@<TRIPOS>ATOM
     1 C         -0.408718   -0.797513   1.991916 C.3        1 UNL1     0.1889
     2 C         -0.752568   0.121498   0.78895 C.3        1 UNL1     0.1342
     3 C         -0.877904   1.612786   1.136538 C.3        1 UNL1     0.1174
     4 C         -1.469987   1.850142   2.528018 C.3        1 UNL1     0.1456
     5 C         -0.82346   0.95918   3.604379 C.3        1 UNL1     0.2326
     6 O         -0.957862   -0.413731   3.243933 O.3        1 UNL1     -0.3076
     7 O         0.530601   1.331609   3.919241 O.3        1 UNL1     -0.4605
     8 C         0.77505   2.688278   4.034221 C.ar        1 UNL1     0.1310
     9 C         0.29569   3.514253   5.056611 C.ar        1 UNL1     0.0226
     10 C         0.613505   4.877127   5.094933 C.ar        1 UNL1     0.1343
     11 C         1.438779   5.442723   4.123921 C.ar        1 UNL1     0.1007
     12 C         1.889995   4.636783   3.07528 C.ar        1 UNL1     0.1389
     13 C         1.568126   3.26702   3.035518 C.ar        1 UNL1     0.0229
     14 C         1.874688   6.857875   4.16242 C.2        1 UNL1     0.1740
     15 C         2.934587   7.237985   3.170613 C.3        1 UNL1     0.0520
     16 C         2.627057   6.548143   1.848682 C.3        1 UNL1     0.1322
     17 O         2.617953   5.112472   2.009416 O.3        1 UNL1     -0.4828
     18 C         1.400124   7.11372   1.129319 C.ar        1 UNL1     -0.0067
     19 C         0.282343   7.523824   1.884696 C.ar        1 UNL1     -0.0516
     20 C         -0.873694   8.001224   1.255705 C.ar        1 UNL1     -0.0198
     21 C         -0.927038   8.066327   -0.125144 C.ar        1 UNL1     0.1169
     22 C         0.169739   7.701235   -0.894966 C.ar        1 UNL1     -0.0198
     23 C         1.332588   7.241191   -0.265523 C.ar        1 UNL1     -0.0516
     24 O         -2.083264   8.500825   -0.703724 O.3        1 UNL1     -0.5068
     25 O         1.470948   7.667336   4.993234 O.2        1 UNL1     -0.2917
     26 O         0.113087   5.628002   6.118336 O.3        1 UNL1     -0.5058
     27 O         0.9738   -1.098333   2.096499 O.3        1 UNL1     -0.3648
     28 O         -2.015911   -0.298247   0.240786 O.3        1 UNL1     -0.3841
     29 O         0.368296   2.284937   0.943328 O.3        1 UNL1     -0.3863
     30 O         -2.888117   1.579413   2.491915 O.3        1 UNL1     -0.3829
     31 H         -0.880848   -1.765424   1.79112 H        1 UNL1     0.0937
     32 H         0.0   0.0   0.0 H        1 UNL1     0.0671
     33 H         -1.570098   2.068339   0.414694 H        1 UNL1     0.0649
     34 H         -1.351572   2.90212   2.810368 H        1 UNL1     0.0683
     35 H         -1.449644   1.118919   4.49109 H        1 UNL1     0.1085
     36 H         -0.304149   3.123569   5.871276 H        1 UNL1     0.0691
     37 H         1.930962   2.66141   2.207823 H        1 UNL1     0.0691
     38 H         3.89836   6.908484   3.573225 H        1 UNL1     0.0385
     39 H         2.959763   8.328633   3.072472 H        1 UNL1     0.0385
     40 H         3.473699   6.743819   1.176798 H        1 UNL1     0.0789
     41 H         0.295892   7.473856   2.969579 H        1 UNL1     0.0623
     42 H         -1.733399   8.303249   1.848747 H        1 UNL1     0.0654
     43 H         0.144132   7.762437   -1.976404 H        1 UNL1     0.0654
     44 H         2.174176   6.974463   -0.897528 H        1 UNL1     0.0623
     45 H         -2.150022   9.460546   -0.572597 H        1 UNL1     0.2921
     46 H         0.812688   6.199471   6.472446 H        1 UNL1     0.2922
     47 H         1.252643   -1.653639   1.355054 H        1 UNL1     0.2126
     48 H         -1.874416   -0.434031   -0.715913 H        1 UNL1     0.2101
     49 H         0.698393   2.618698   1.7927 H        1 UNL1     0.2100
     50 H         -3.111083   1.034554   3.27494 H        1 UNL1     0.2102
@<TRIPOS>BOND
     1     1     2    1
     2     1     6    1
     3     2     3    1
     4     3     4    1
     5     3    29    1
     6     3    33    1
     7     4     5    1
     8     5     6    1
     9     5     7    1
    10     5    35    1
    11     7     8    1
    12     8     9   ar
    13     8    13   ar
    14     9    10   ar
    15     9    36    1
    16    10    11   ar
    17    10    26    1
    18    11    12   ar
    19    11    14    1
    20    12    13   ar
    21    12    17    1
    22    13    37    1
    23    14    15    1
    24    14    25    2
    25    15    16    1
    26    15    38    1
    27    15    39    1
    28    16    17    1
    29    16    18    1
    30    16    40    1
    31    18    19   ar
    32    18    23   ar
    33    19    20   ar
    34    19    41    1
    35    20    21   ar
    36    20    42    1
    37    21    22   ar
    38    21    24    1
    39    22    23   ar
    40    22    43    1
    41    23    44    1
    42    24    45    1
    43    26    46    1
    44    27    47    1
    45    28    48    1
    46    29    49    1
    47    30    50    1
    48     1    31    1
    49     1    27    1
    50     2    32    1
    51     2    28    1
    52     4    34    1
    53     4    30    1
