@<TRIPOS>MOLECULE
*****
 50 53 0 0 0
SMALL
GASTEIGER

@<TRIPOS>ATOM
     1 C         -0.330077   -1.327082   1.703146 C.3        1 UNL1     0.1889
     2 C         -0.461519   -0.975623   0.19678 C.3        1 UNL1     0.1342
     3 C         -1.9026   -0.964816   -0.335795 C.3        1 UNL1     0.1174
     4 C         -2.787688   -2.024254   0.325513 C.3        1 UNL1     0.1456
     5 C         -2.635373   -2.04808   1.857373 C.3        1 UNL1     0.2326
     6 O         -1.270134   -2.264654   2.206779 O.3        1 UNL1     -0.3076
     7 O         -3.211009   -0.900946   2.508562 O.3        1 UNL1     -0.4605
     8 C         -4.425278   -1.10718   3.138283 C.ar        1 UNL1     0.1310
     9 C         -5.514331   -1.795551   2.592931 C.ar        1 UNL1     0.0226
     10 C         -6.699211   -1.966815   3.318625 C.ar        1 UNL1     0.1343
     11 C         -6.815369   -1.473952   4.617638 C.ar        1 UNL1     0.1007
     12 C         -5.749496   -0.749299   5.157616 C.ar        1 UNL1     0.1389
     13 C         -4.559181   -0.574948   4.426738 C.ar        1 UNL1     0.0229
     14 C         -8.012751   -1.698766   5.460187 C.2        1 UNL1     0.1740
     15 C         -7.879206   -1.295013   6.89918 C.3        1 UNL1     0.0520
     16 C         -7.111995   0.01854   6.961811 C.3        1 UNL1     0.1322
     17 O         -5.796008   -0.128201   6.384132 O.3        1 UNL1     -0.4828
     18 C         -7.903614   1.219975   6.439682 C.ar        1 UNL1     -0.0067
     19 C         -7.300975   2.097469   5.514996 C.ar        1 UNL1     -0.0516
     20 C         -7.979657   3.231744   5.05372 C.ar        1 UNL1     -0.0198
     21 C         -9.255715   3.502946   5.514105 C.ar        1 UNL1     0.1169
     22 C         -9.888416   2.639719   6.399186 C.ar        1 UNL1     -0.0198
     23 C         -9.217011   1.495508   6.846457 C.ar        1 UNL1     -0.0516
     24 O         -9.870926   4.637021   5.071626 O.3        1 UNL1     -0.5068
     25 O         -9.031659   -2.250953   5.053493 O.2        1 UNL1     -0.2917
     26 O         -7.724578   -2.646922   2.728998 O.3        1 UNL1     -0.5058
     27 O         -0.225375   -0.188012   2.542399 O.3        1 UNL1     -0.3648
     28 O         0.269512   -1.954113   -0.565359 O.3        1 UNL1     -0.3841
     29 O         -2.461133   0.348392   -0.260567 O.3        1 UNL1     -0.3863
     30 O         -2.439256   -3.325222   -0.195801 O.3        1 UNL1     -0.3829
     31 H         0.631081   -1.839016   1.822219 H        1 UNL1     0.0937
     32 H         0.0   0.0   0.0 H        1 UNL1     0.0671
     33 H         -1.865859   -1.205296   -1.407494 H        1 UNL1     0.0649
     34 H         -3.838077   -1.847049   0.069227 H        1 UNL1     0.0683
     35 H         -3.189185   -2.944145   2.164358 H        1 UNL1     0.1085
     36 H         -5.466817   -2.250672   1.609708 H        1 UNL1     0.0691
     37 H         -3.744411   -0.005853   4.869203 H        1 UNL1     0.0691
     38 H         -7.338362   -2.093435   7.418349 H        1 UNL1     0.0385
     39 H         -8.877205   -1.213182   7.343118 H        1 UNL1     0.0385
     40 H         -6.923845   0.233262   8.022478 H        1 UNL1     0.0789
     41 H         -6.296722   1.911617   5.145421 H        1 UNL1     0.0623
     42 H         -7.499677   3.907137   4.349821 H        1 UNL1     0.0654
     43 H         -10.893247   2.834544   6.754527 H        1 UNL1     0.0654
     44 H         -9.74552   0.837536   7.529535 H        1 UNL1     0.0623
     45 H         -10.684926   4.383118   4.607242 H        1 UNL1     0.2921
     46 H         -7.977272   -3.399083   3.287398 H        1 UNL1     0.2922
     47 H         0.517109   0.366026   2.263795 H        1 UNL1     0.2126
     48 H         1.20232   -1.887963   -0.28389 H        1 UNL1     0.2101
     49 H         -2.022995   0.93058   -0.901571 H        1 UNL1     0.2100
     50 H         -2.672922   -3.341331   -1.147039 H        1 UNL1     0.2102
@<TRIPOS>BOND
     1     1     2    1
     2     1     6    1
     3     2     3    1
     4     3     4    1
     5     3    29    1
     6     3    33    1
     7     4     5    1
     8     5     6    1
     9     5     7    1
    10     5    35    1
    11     7     8    1
    12     8     9   ar
    13     8    13   ar
    14     9    10   ar
    15     9    36    1
    16    10    11   ar
    17    10    26    1
    18    11    12   ar
    19    11    14    1
    20    12    13   ar
    21    12    17    1
    22    13    37    1
    23    14    15    1
    24    14    25    2
    25    15    16    1
    26    15    38    1
    27    15    39    1
    28    16    17    1
    29    16    18    1
    30    16    40    1
    31    18    19   ar
    32    18    23   ar
    33    19    20   ar
    34    19    41    1
    35    20    21   ar
    36    20    42    1
    37    21    22   ar
    38    21    24    1
    39    22    23   ar
    40    22    43    1
    41    23    44    1
    42    24    45    1
    43    26    46    1
    44    27    47    1
    45    28    48    1
    46    29    49    1
    47    30    50    1
    48     1    31    1
    49     1    27    1
    50     2    32    1
    51     2    28    1
    52     4    34    1
    53     4    30    1
