@<TRIPOS>MOLECULE
*****
 50 53 0 0 0
SMALL
GASTEIGER

@<TRIPOS>ATOM
     1 C         -0.330776   -1.327411   1.702754 C.3        1 UNL1     0.1889
     2 C         -0.461891   -0.975511   0.196462 C.3        1 UNL1     0.1342
     3 C         -1.902895   -0.964055   -0.336303 C.3        1 UNL1     0.1174
     4 C         -2.788447   -2.023353   0.324607 C.3        1 UNL1     0.1456
     5 C         -2.636348   -2.047634   1.856482 C.3        1 UNL1     0.2326
     6 O         -1.271232   -2.264782   2.206015 O.3        1 UNL1     -0.3076
     7 O         -3.211666   -0.900467   2.507894 O.3        1 UNL1     -0.4605
     8 C         -3.72069   -1.115332   3.776064 C.ar        1 UNL1     0.1310
     9 C         -4.536198   -2.188559   4.150806 C.ar        1 UNL1     0.0226
     10 C         -4.988494   -2.328285   5.468307 C.ar        1 UNL1     0.1343
     11 C         -4.616323   -1.410196   6.449348 C.ar        1 UNL1     0.1007
     12 C         -3.836024   -0.311889   6.07835 C.ar        1 UNL1     0.1389
     13 C         -3.383551   -0.170186   4.752975 C.ar        1 UNL1     0.0229
     14 C         -4.996266   -1.555247   7.873692 C.2        1 UNL1     0.1740
     15 C         -4.327508   -0.605901   8.823984 C.3        1 UNL1     0.0520
     16 C         -4.259375   0.765652   8.166598 C.3        1 UNL1     0.1322
     17 O         -3.501303   0.708404   6.938136 O.3        1 UNL1     -0.4828
     18 C         -5.619118   1.457116   8.041295 C.ar        1 UNL1     -0.0067
     19 C         -5.999117   2.018808   6.805044 C.ar        1 UNL1     -0.0516
     20 C         -7.214881   2.699464   6.668708 C.ar        1 UNL1     -0.0198
     21 C         -8.054177   2.83133   7.760505 C.ar        1 UNL1     0.1169
     22 C         -7.722964   2.260209   8.982371 C.ar        1 UNL1     -0.0198
     23 C         -6.515734   1.563594   9.114205 C.ar        1 UNL1     -0.0516
     24 O         -9.212395   3.533479   7.599506 O.3        1 UNL1     -0.5068
     25 O         -5.74431   -2.437119   8.287476 O.2        1 UNL1     -0.2917
     26 O         -5.781994   -3.396888   5.768358 O.3        1 UNL1     -0.5058
     27 O         -0.225784   -0.188598   2.542319 O.3        1 UNL1     -0.3648
     28 O         0.268897   -1.954061   -0.565834 O.3        1 UNL1     -0.3841
     29 O         -2.460974   0.34933   -0.260807 O.3        1 UNL1     -0.3863
     30 O         -2.440405   -3.324308   -0.196999 O.3        1 UNL1     -0.3829
     31 H         0.630185   -1.839716   1.821823 H        1 UNL1     0.0937
     32 H         0.0   0.0   0.0 H        1 UNL1     0.0671
     33 H         -1.866095   -1.204268   -1.408061 H        1 UNL1     0.0649
     34 H         -3.838739   -1.84571   0.068227 H        1 UNL1     0.0683
     35 H         -3.190518   -2.943583   2.163157 H        1 UNL1     0.1085
     36 H         -4.814474   -2.965934   3.447691 H        1 UNL1     0.0691
     37 H         -2.778174   0.694442   4.489479 H        1 UNL1     0.0691
     38 H         -3.324823   -0.995259   9.030262 H        1 UNL1     0.0385
     39 H         -4.887255   -0.58653   9.765306 H        1 UNL1     0.0385
     40 H         -3.664555   1.411678   8.826416 H        1 UNL1     0.0789
     41 H         -5.353688   1.936858   5.935356 H        1 UNL1     0.0623
     42 H         -7.491199   3.138479   5.713236 H        1 UNL1     0.0654
     43 H         -8.379802   2.344521   9.839906 H        1 UNL1     0.0654
     44 H         -6.293842   1.121072   10.08053 H        1 UNL1     0.0623
     45 H         -8.98706   4.440981   7.33801 H        1 UNL1     0.2921
     46 H         -5.37747   -3.908667   6.486588 H        1 UNL1     0.2922
     47 H         0.516827   0.365339   2.263854 H        1 UNL1     0.2126
     48 H         1.201871   -1.887581   -0.28499 H        1 UNL1     0.2101
     49 H         -2.022544   0.931531   -0.9016 H        1 UNL1     0.2100
     50 H         -2.673948   -3.340085   -1.148273 H        1 UNL1     0.2102
@<TRIPOS>BOND
     1     1     2    1
     2     1     6    1
     3     2     3    1
     4     3     4    1
     5     3    29    1
     6     3    33    1
     7     4     5    1
     8     5     6    1
     9     5     7    1
    10     5    35    1
    11     7     8    1
    12     8     9   ar
    13     8    13   ar
    14     9    10   ar
    15     9    36    1
    16    10    11   ar
    17    10    26    1
    18    11    12   ar
    19    11    14    1
    20    12    13   ar
    21    12    17    1
    22    13    37    1
    23    14    15    1
    24    14    25    2
    25    15    16    1
    26    15    38    1
    27    15    39    1
    28    16    17    1
    29    16    18    1
    30    16    40    1
    31    18    19   ar
    32    18    23   ar
    33    19    20   ar
    34    19    41    1
    35    20    21   ar
    36    20    42    1
    37    21    22   ar
    38    21    24    1
    39    22    23   ar
    40    22    43    1
    41    23    44    1
    42    24    45    1
    43    26    46    1
    44    27    47    1
    45    28    48    1
    46    29    49    1
    47    30    50    1
    48     1    31    1
    49     1    27    1
    50     2    32    1
    51     2    28    1
    52     4    34    1
    53     4    30    1
