@<TRIPOS>MOLECULE
*****
 50 53 0 0 0
SMALL
GASTEIGER

@<TRIPOS>ATOM
     1 C         -0.84645   0.575835   1.92944 C.3        1 UNL1     0.1889
     2 C         -0.894531   0.509488   0.379206 C.3        1 UNL1     0.1342
     3 C         -1.02797   1.87249   -0.31713 C.3        1 UNL1     0.1174
     4 C         -1.886196   2.862084   0.474873 C.3        1 UNL1     0.1456
     5 C         -1.514834   2.901723   1.968487 C.3        1 UNL1     0.2326
     6 O         -1.62769   1.59698   2.532204 O.3        1 UNL1     -0.3076
     7 O         -0.241705   3.521371   2.226364 O.3        1 UNL1     -0.4605
     8 C         -0.075454   4.798196   1.720791 C.ar        1 UNL1     0.1310
     9 C         0.875754   5.174326   0.766312 C.ar        1 UNL1     0.0226
     10 C         0.954219   6.493217   0.303418 C.ar        1 UNL1     0.1343
     11 C         0.066891   7.463715   0.766693 C.ar        1 UNL1     0.1007
     12 C         -0.860561   7.109492   1.750127 C.ar        1 UNL1     0.1389
     13 C         -0.937522   5.783891   2.217342 C.ar        1 UNL1     0.0229
     14 C         0.050417   8.852001   0.250414 C.2        1 UNL1     0.1740
     15 C         -1.108068   9.696074   0.694264 C.3        1 UNL1     0.0520
     16 C         -1.383513   9.402423   2.162547 C.3        1 UNL1     0.1322
     17 O         -1.709002   8.008024   2.354326 O.3        1 UNL1     -0.4828
     18 C         -0.308262   9.939036   3.110496 C.ar        1 UNL1     -0.0067
     19 C         1.01582   10.080403   2.646776 C.ar        1 UNL1     -0.0516
     20 C         2.032679   10.523265   3.501079 C.ar        1 UNL1     -0.0198
     21 C         1.740402   10.820266   4.820242 C.ar        1 UNL1     0.1169
     22 C         0.439753   10.72301   5.297413 C.ar        1 UNL1     -0.0198
     23 C         -0.58075   10.29783   4.438431 C.ar        1 UNL1     -0.0516
     24 O         2.763577   11.212401   5.632487 O.3        1 UNL1     -0.5068
     25 O         0.873034   9.284566   -0.552502 O.2        1 UNL1     -0.2917
     26 O         1.90526   6.795095   -0.62716 O.3        1 UNL1     -0.5058
     27 O         0.470529   0.544227   2.456085 O.3        1 UNL1     -0.3648
     28 O         -2.032435   -0.282777   -0.008345 O.3        1 UNL1     -0.3841
     29 O         0.257731   2.39907   -0.651524 O.3        1 UNL1     -0.3863
     30 O         -3.275724   2.488214   0.3519 O.3        1 UNL1     -0.3829
     31 H         -1.305902   -0.348418   2.296508 H        1 UNL1     0.0937
     32 H         0.0   0.0   -0.0 H        1 UNL1     0.0671
     33 H         -1.535589   1.709818   -1.278162 H        1 UNL1     0.0649
     34 H         -1.785922   3.867189   0.050477 H        1 UNL1     0.0683
     35 H         -2.304611   3.5142   2.42126 H        1 UNL1     0.1085
     36 H         1.5571   4.454641   0.325923 H        1 UNL1     0.0691
     37 H         -1.667656   5.534027   2.984131 H        1 UNL1     0.0691
     38 H         -1.9686   9.431776   0.070438 H        1 UNL1     0.0385
     39 H         -0.870802   10.751192   0.520461 H        1 UNL1     0.0385
     40 H         -2.303181   9.938729   2.432931 H        1 UNL1     0.0789
     41 H         1.272688   9.844948   1.618072 H        1 UNL1     0.0623
     42 H         3.052031   10.6168   3.134767 H        1 UNL1     0.0654
     43 H         0.197038   10.967466   6.324663 H        1 UNL1     0.0654
     44 H         -1.587229   10.243488   4.84203 H        1 UNL1     0.0623
     45 H         2.514868   11.023748   6.551873 H        1 UNL1     0.2921
     46 H         2.628125   7.284718   -0.203902 H        1 UNL1     0.2922
     47 H         0.804591   -0.363581   2.468167 H        1 UNL1     0.2126
     48 H         -1.999524   -0.362439   -0.981126 H        1 UNL1     0.2101
     49 H         0.321102   3.323371   -0.362654 H        1 UNL1     0.2100
     50 H         -3.548365   2.642175   -0.576365 H        1 UNL1     0.2102
@<TRIPOS>BOND
     1     1     2    1
     2     1     6    1
     3     2     3    1
     4     3     4    1
     5     3    29    1
     6     3    33    1
     7     4     5    1
     8     5     6    1
     9     5     7    1
    10     5    35    1
    11     7     8    1
    12     8     9   ar
    13     8    13   ar
    14     9    10   ar
    15     9    36    1
    16    10    11   ar
    17    10    26    1
    18    11    12   ar
    19    11    14    1
    20    12    13   ar
    21    12    17    1
    22    13    37    1
    23    14    15    1
    24    14    25    2
    25    15    16    1
    26    15    38    1
    27    15    39    1
    28    16    17    1
    29    16    18    1
    30    16    40    1
    31    18    19   ar
    32    18    23   ar
    33    19    20   ar
    34    19    41    1
    35    20    21   ar
    36    20    42    1
    37    21    22   ar
    38    21    24    1
    39    22    23   ar
    40    22    43    1
    41    23    44    1
    42    24    45    1
    43    26    46    1
    44    27    47    1
    45    28    48    1
    46    29    49    1
    47    30    50    1
    48     1    31    1
    49     1    27    1
    50     2    32    1
    51     2    28    1
    52     4    34    1
    53     4    30    1
