@<TRIPOS>MOLECULE
*****
 50 53 0 0 0
SMALL
GASTEIGER

@<TRIPOS>ATOM
     1 C         0.254334   -1.755719   1.274194 C.3        1 UNL1     0.1889
     2 C         -0.327291   -1.04689   0.021511 C.3        1 UNL1     0.1342
     3 C         -1.858884   -1.095467   -0.089522 C.3        1 UNL1     0.1174
     4 C         -2.451701   -2.400926   0.446634 C.3        1 UNL1     0.1456
     5 C         -1.861834   -2.800287   1.811527 C.3        1 UNL1     0.2326
     6 O         -0.443693   -2.911282   1.714453 O.3        1 UNL1     -0.3076
     7 O         -2.290348   -1.951251   2.891728 O.3        1 UNL1     -0.4605
     8 C         -2.39726   -2.555136   4.131656 C.ar        1 UNL1     0.1310
     9 C         -3.005116   -3.790142   4.3818 C.ar        1 UNL1     0.0226
     10 C         -3.047962   -4.327196   5.673946 C.ar        1 UNL1     0.1343
     11 C         -2.462415   -3.652671   6.744456 C.ar        1 UNL1     0.1007
     12 C         -1.888587   -2.399486   6.514169 C.ar        1 UNL1     0.1389
     13 C         -1.847965   -1.858477   5.215289 C.ar        1 UNL1     0.0229
     14 C         -2.404913   -4.212585   8.114618 C.2        1 UNL1     0.1740
     15 C         -1.546719   -3.459537   9.088256 C.3        1 UNL1     0.0520
     16 C         -1.752194   -1.968552   8.858693 C.3        1 UNL1     0.1322
     17 O         -1.379889   -1.60096   7.512091 O.3        1 UNL1     -0.4828
     18 C         -3.128148   -1.461463   9.297253 C.ar        1 UNL1     -0.0067
     19 C         -3.881805   -0.656272   8.418685 C.ar        1 UNL1     -0.0516
     20 C         -5.122755   -0.136914   8.806338 C.ar        1 UNL1     -0.0198
     21 C         -5.616525   -0.408792   10.069707 C.ar        1 UNL1     0.1169
     22 C         -4.913087   -1.22596   10.945064 C.ar        1 UNL1     -0.0198
     23 C         -3.680659   -1.760581   10.550909 C.ar        1 UNL1     -0.0516
     24 O         -6.810887   0.145396   10.425762 O.3        1 UNL1     -0.5068
     25 O         -2.948237   -5.265513   8.438079 O.2        1 UNL1     -0.2917
     26 O         -3.656667   -5.535406   5.850839 O.3        1 UNL1     -0.5058
     27 O         0.530739   -0.870143   2.347573 O.3        1 UNL1     -0.3648
     28 O         0.207806   -1.684663   -1.153063 O.3        1 UNL1     -0.3841
     29 O         -2.447265   0.0641   0.50322 O.3        1 UNL1     -0.3863
     30 O         -2.193774   -3.461796   -0.498733 O.3        1 UNL1     -0.3829
     31 H         1.236964   -2.144591   0.985583 H        1 UNL1     0.0937
     32 H         0.0   0.0   0.0 H        1 UNL1     0.0671
     33 H         -2.119663   -1.042317   -1.155772 H        1 UNL1     0.0649
     34 H         -3.539781   -2.30867   0.535916 H        1 UNL1     0.0683
     35 H         -2.250077   -3.812329   1.981573 H        1 UNL1     0.1085
     36 H         -3.428806   -4.38929   3.583283 H        1 UNL1     0.0691
     37 H         -1.396469   -0.880547   5.062651 H        1 UNL1     0.0691
     38 H         -0.506206   -3.747746   8.904424 H        1 UNL1     0.0385
     39 H         -1.810373   -3.76173   10.107543 H        1 UNL1     0.0385
     40 H         -1.030885   -1.440352   9.496845 H        1 UNL1     0.0789
     41 H         -3.511934   -0.4208   7.425006 H        1 UNL1     0.0623
     42 H         -5.688926   0.492463   8.124175 H        1 UNL1     0.0654
     43 H         -5.297514   -1.45759   11.931205 H        1 UNL1     0.0654
     44 H         -3.163142   -2.403585   11.256293 H        1 UNL1     0.0623
     45 H         -6.724801   1.111667   10.385427 H        1 UNL1     0.2921
     46 H         -3.031995   -6.155738   6.258742 H        1 UNL1     0.2922
     47 H         1.127378   -0.16665   2.056063 H        1 UNL1     0.2126
     48 H         1.176651   -1.566876   -1.118464 H        1 UNL1     0.2101
     49 H         -2.24786   0.846903   -0.0346 H        1 UNL1     0.2100
     50 H         -2.69116   -3.262371   -1.318824 H        1 UNL1     0.2102
@<TRIPOS>BOND
     1     1     2    1
     2     1     6    1
     3     2     3    1
     4     3     4    1
     5     3    29    1
     6     3    33    1
     7     4     5    1
     8     5     6    1
     9     5     7    1
    10     5    35    1
    11     7     8    1
    12     8     9   ar
    13     8    13   ar
    14     9    10   ar
    15     9    36    1
    16    10    11   ar
    17    10    26    1
    18    11    12   ar
    19    11    14    1
    20    12    13   ar
    21    12    17    1
    22    13    37    1
    23    14    15    1
    24    14    25    2
    25    15    16    1
    26    15    38    1
    27    15    39    1
    28    16    17    1
    29    16    18    1
    30    16    40    1
    31    18    19   ar
    32    18    23   ar
    33    19    20   ar
    34    19    41    1
    35    20    21   ar
    36    20    42    1
    37    21    22   ar
    38    21    24    1
    39    22    23   ar
    40    22    43    1
    41    23    44    1
    42    24    45    1
    43    26    46    1
    44    27    47    1
    45    28    48    1
    46    29    49    1
    47    30    50    1
    48     1    31    1
    49     1    27    1
    50     2    32    1
    51     2    28    1
    52     4    34    1
    53     4    30    1
