@<TRIPOS>MOLECULE
*****
 50 53 0 0 0
SMALL
GASTEIGER

@<TRIPOS>ATOM
     1 C         0.247533   -1.759094   1.270874 C.3        1 UNL1     0.1889
     2 C         -0.330835   -1.045821   0.019206 C.3        1 UNL1     0.1342
     3 C         -1.862506   -1.089008   -0.092968 C.3        1 UNL1     0.1174
     4 C         -2.460093   -2.393521   0.440188 C.3        1 UNL1     0.1456
     5 C         -1.872516   -2.797579   1.804686 C.3        1 UNL1     0.2326
     6 O         -0.454691   -2.913166   1.708359 O.3        1 UNL1     -0.3076
     7 O         -2.298908   -1.94925   2.886281 O.3        1 UNL1     -0.4605
     8 C         -2.410983   -2.555775   4.124462 C.ar        1 UNL1     0.1310
     9 C         -3.025229   -3.788474   4.370343 C.ar        1 UNL1     0.0226
     10 C         -3.073013   -4.32861   5.661029 C.ar        1 UNL1     0.1343
     11 C         -2.486179   -3.659647   6.734321 C.ar        1 UNL1     0.1007
     12 C         -1.90591   -2.408657   6.508283 C.ar        1 UNL1     0.1389
     13 C         -1.860318   -1.864537   5.210868 C.ar        1 UNL1     0.0229
     14 C         -2.433869   -4.223326   8.103147 C.2        1 UNL1     0.1740
     15 C         -1.573837   -3.476908   9.080262 C.3        1 UNL1     0.0520
     16 C         -1.771716   -1.984369   8.854145 C.3        1 UNL1     0.1322
     17 O         -1.395194   -1.61514   7.509166 O.3        1 UNL1     -0.4828
     18 C         -3.146011   -1.47178   9.291512 C.ar        1 UNL1     -0.0067
     19 C         -3.893327   -0.659097   8.414426 C.ar        1 UNL1     -0.0516
     20 C         -5.132434   -0.134749   8.801252 C.ar        1 UNL1     -0.0198
     21 C         -5.630624   -0.409082   10.062353 C.ar        1 UNL1     0.1169
     22 C         -4.933583   -1.233464   10.936062 C.ar        1 UNL1     -0.0198
     23 C         -3.703062   -1.773004   10.542653 C.ar        1 UNL1     -0.0516
     24 O         -6.822886   0.149976   10.417831 O.3        1 UNL1     -0.5068
     25 O         -2.982841   -5.274447   8.422927 O.2        1 UNL1     -0.2917
     26 O         -3.687846   -5.534322   5.833726 O.3        1 UNL1     -0.5058
     27 O         0.526184   -0.876589   2.3462 O.3        1 UNL1     -0.3648
     28 O         0.202916   -1.683061   -1.156268 O.3        1 UNL1     -0.3841
     29 O         -2.447381   0.071359   0.501678 O.3        1 UNL1     -0.3863
     30 O         -2.205094   -3.453376   -0.50711 O.3        1 UNL1     -0.3829
     31 H         1.229044   -2.150706   0.982161 H        1 UNL1     0.0937
     32 H         0.0   0.0   0.0 H        1 UNL1     0.0671
     33 H         -2.12237   -1.032862   -1.159288 H        1 UNL1     0.0649
     34 H         -3.547917   -2.297771   0.528912 H        1 UNL1     0.0683
     35 H         -2.264288   -3.808642   1.972455 H        1 UNL1     0.1085
     36 H         -3.450341   -4.383534   3.569529 H        1 UNL1     0.0691
     37 H         -1.403845   -0.888407   5.061552 H        1 UNL1     0.0691
     38 H         -0.534389   -3.769654   8.897576 H        1 UNL1     0.0385
     39 H         -1.840798   -3.780427   10.098293 H        1 UNL1     0.0385
     40 H         -1.049038   -1.46128   9.494953 H        1 UNL1     0.0789
     41 H         -3.519865   -0.421596   7.422574 H        1 UNL1     0.0623
     42 H         -5.69366   0.500345   8.120302 H        1 UNL1     0.0654
     43 H         -5.321562   -1.467016   11.920356 H        1 UNL1     0.0654
     44 H         -3.190617   -2.421561   11.246655 H        1 UNL1     0.0623
     45 H         -6.731277   1.115942   10.382689 H        1 UNL1     0.2921
     46 H         -3.067315   -6.158317   6.242363 H        1 UNL1     0.2922
     47 H         1.125256   -0.174437   2.05645 H        1 UNL1     0.2126
     48 H         1.172039   -1.567689   -1.121317 H        1 UNL1     0.2101
     49 H         -2.245039   0.854538   -0.034496 H        1 UNL1     0.2100
     50 H         -2.70124   -3.250646   -1.327142 H        1 UNL1     0.2102
@<TRIPOS>BOND
     1     1     2    1
     2     1     6    1
     3     2     3    1
     4     3     4    1
     5     3    29    1
     6     3    33    1
     7     4     5    1
     8     5     6    1
     9     5     7    1
    10     5    35    1
    11     7     8    1
    12     8     9   ar
    13     8    13   ar
    14     9    10   ar
    15     9    36    1
    16    10    11   ar
    17    10    26    1
    18    11    12   ar
    19    11    14    1
    20    12    13   ar
    21    12    17    1
    22    13    37    1
    23    14    15    1
    24    14    25    2
    25    15    16    1
    26    15    38    1
    27    15    39    1
    28    16    17    1
    29    16    18    1
    30    16    40    1
    31    18    19   ar
    32    18    23   ar
    33    19    20   ar
    34    19    41    1
    35    20    21   ar
    36    20    42    1
    37    21    22   ar
    38    21    24    1
    39    22    23   ar
    40    22    43    1
    41    23    44    1
    42    24    45    1
    43    26    46    1
    44    27    47    1
    45    28    48    1
    46    29    49    1
    47    30    50    1
    48     1    31    1
    49     1    27    1
    50     2    32    1
    51     2    28    1
    52     4    34    1
    53     4    30    1
