@<TRIPOS>MOLECULE
*****
 50 53 0 0 0
SMALL
GASTEIGER

@<TRIPOS>ATOM
     1 C         0.082666   -0.394678   2.146672 C.3        1 UNL1     0.1889
     2 C         -0.699162   -0.089779   0.840639 C.3        1 UNL1     0.1342
     3 C         -1.577771   1.169261   0.898319 C.3        1 UNL1     0.1174
     4 C         -2.194637   1.399714   2.280161 C.3        1 UNL1     0.1456
     5 C         -1.169869   1.24019   3.418039 C.3        1 UNL1     0.2326
     6 O         -0.574802   -0.054104   3.35834 O.3        1 UNL1     -0.3076
     7 O         -0.203508   2.305312   3.472649 O.3        1 UNL1     -0.4605
     8 C         -0.117298   3.103958   2.346478 C.ar        1 UNL1     0.1310
     9 C         -0.954111   3.021188   1.228357 C.ar        1 UNL1     0.0226
     10 C         -0.797063   3.888908   0.141021 C.ar        1 UNL1     0.1343
     11 C         0.18642   4.877031   0.155698 C.ar        1 UNL1     0.1007
     12 C         1.054432   4.942878   1.24886 C.ar        1 UNL1     0.1389
     13 C         0.898002   4.068558   2.340888 C.ar        1 UNL1     0.0229
     14 C         0.34269   5.873864   -0.928764 C.2        1 UNL1     0.1740
     15 C         1.29894   6.995344   -0.646953 C.3        1 UNL1     0.0520
     16 C         2.512396   6.424214   0.073666 C.3        1 UNL1     0.1322
     17 O         2.124227   5.804727   1.319712 O.3        1 UNL1     -0.4828
     18 C         3.404728   5.555198   -0.815874 C.ar        1 UNL1     -0.0067
     19 C         4.512439   4.892268   -0.248676 C.ar        1 UNL1     -0.0516
     20 C         5.375999   4.128111   -1.042584 C.ar        1 UNL1     -0.0198
     21 C         5.147402   4.025287   -2.403098 C.ar        1 UNL1     0.1169
     22 C         4.045981   4.639107   -2.98528 C.ar        1 UNL1     -0.0198
     23 C         3.171815   5.388185   -2.188555 C.ar        1 UNL1     -0.0516
     24 O         6.031179   3.303569   -3.150402 O.3        1 UNL1     -0.5068
     25 O         -0.314022   5.852608   -1.966436 O.2        1 UNL1     -0.2917
     26 O         -1.645335   3.755114   -0.919223 O.3        1 UNL1     -0.5058
     27 O         1.421174   0.075216   2.127096 O.3        1 UNL1     -0.3648
     28 O         -1.5655   -1.20409   0.556958 O.3        1 UNL1     -0.3841
     29 O         -0.86376   2.308455   0.414007 O.3        1 UNL1     -0.3863
     30 O         -3.266096   0.453185   2.484481 O.3        1 UNL1     -0.3829
     31 H         0.180207   -1.484207   2.205761 H        1 UNL1     0.0937
     32 H         0.0   0.0   0.0 H        1 UNL1     0.0671
     33 H         -2.412258   1.028252   0.197271 H        1 UNL1     0.0649
     34 H         -2.637361   2.400676   2.32987 H        1 UNL1     0.0683
     35 H         -1.780035   1.268975   4.329493 H        1 UNL1     0.1085
     36 H         -1.772825   2.311608   1.180145 H        1 UNL1     0.0691
     37 H         1.587519   4.139577   3.179348 H        1 UNL1     0.0691
     38 H         0.77631   7.726923   -0.021512 H        1 UNL1     0.0385
     39 H         1.568848   7.482463   -1.590163 H        1 UNL1     0.0385
     40 H         3.14045   7.274019   0.373498 H        1 UNL1     0.0789
     41 H         4.718727   4.964793   0.815202 H        1 UNL1     0.0623
     42 H         6.233514   3.631432   -0.595383 H        1 UNL1     0.0654
     43 H         3.84909   4.55275   -4.047206 H        1 UNL1     0.0654
     44 H         2.315523   5.845411   -2.674924 H        1 UNL1     0.0623
     45 H         6.744496   2.994905   -2.568489 H        1 UNL1     0.2921
     46 H         -1.431297   4.421765   -1.59092 H        1 UNL1     0.2922
     47 H         1.626126   0.466435   1.266398 H        1 UNL1     0.2126
     48 H         -1.246624   -1.601232   -0.276306 H        1 UNL1     0.2101
     49 H         0.087708   2.189713   0.563686 H        1 UNL1     0.2100
     50 H         -3.915619   0.860107   3.094602 H        1 UNL1     0.2102
@<TRIPOS>BOND
     1     1     2    1
     2     1     6    1
     3     2     3    1
     4     3     4    1
     5     3    29    1
     6     3    33    1
     7     4     5    1
     8     5     6    1
     9     5     7    1
    10     5    35    1
    11     7     8    1
    12     8     9   ar
    13     8    13   ar
    14     9    10   ar
    15     9    36    1
    16    10    11   ar
    17    10    26    1
    18    11    12   ar
    19    11    14    1
    20    12    13   ar
    21    12    17    1
    22    13    37    1
    23    14    15    1
    24    14    25    2
    25    15    16    1
    26    15    38    1
    27    15    39    1
    28    16    17    1
    29    16    18    1
    30    16    40    1
    31    18    19   ar
    32    18    23   ar
    33    19    20   ar
    34    19    41    1
    35    20    21   ar
    36    20    42    1
    37    21    22   ar
    38    21    24    1
    39    22    23   ar
    40    22    43    1
    41    23    44    1
    42    24    45    1
    43    26    46    1
    44    27    47    1
    45    28    48    1
    46    29    49    1
    47    30    50    1
    48     1    31    1
    49     1    27    1
    50     2    32    1
    51     2    28    1
    52     4    34    1
    53     4    30    1
