@<TRIPOS>MOLECULE
*****
 50 53 0 0 0
SMALL
GASTEIGER

@<TRIPOS>ATOM
     1 C         0.122233   -1.778277   1.262376 C.3        1 UNL1     0.1889
     2 C         -0.380403   -1.029007   -0.00091 C.3        1 UNL1     0.1342
     3 C         -1.907902   -0.998425   -0.163011 C.3        1 UNL1     0.1174
     4 C         -2.583698   -2.27695   0.338777 C.3        1 UNL1     0.1456
     5 C         -2.060936   -2.718641   1.717904 C.3        1 UNL1     0.2326
     6 O         -0.647773   -2.900847   1.666509 O.3        1 UNL1     -0.3076
     7 O         -2.481927   -1.859045   2.792697 O.3        1 UNL1     -0.4605
     8 C         -2.672216   -2.470426   4.018883 C.ar        1 UNL1     0.1310
     9 C         -3.604337   -3.479074   4.28549 C.ar        1 UNL1     0.0226
     10 C         -3.709586   -4.048796   5.559947 C.ar        1 UNL1     0.1343
     11 C         -2.868124   -3.639891   6.593669 C.ar        1 UNL1     0.1007
     12 C         -1.961332   -2.604842   6.350389 C.ar        1 UNL1     0.1389
     13 C         -1.857511   -2.030318   5.06954 C.ar        1 UNL1     0.0229
     14 C         -2.87903   -4.265664   7.93622 C.2        1 UNL1     0.1740
     15 C         -1.762102   -3.858126   8.851608 C.3        1 UNL1     0.0520
     16 C         -1.523791   -2.363642   8.685229 C.3        1 UNL1     0.1322
     17 O         -1.160884   -2.050851   7.322317 O.3        1 UNL1     -0.4828
     18 C         -2.644569   -1.493337   9.258944 C.ar        1 UNL1     -0.0067
     19 C         -3.870836   -1.399875   8.5692 C.ar        1 UNL1     -0.0516
     20 C         -4.899501   -0.575858   9.041225 C.ar        1 UNL1     -0.0198
     21 C         -4.712014   0.163742   10.195205 C.ar        1 UNL1     0.1169
     22 C         -3.527989   0.067111   10.914638 C.ar        1 UNL1     -0.0198
     23 C         -2.506028   -0.770982   10.452847 C.ar        1 UNL1     -0.0516
     24 O         -5.722141   0.984173   10.603784 O.3        1 UNL1     -0.5068
     25 O         -3.689214   -5.124152   8.27546 O.2        1 UNL1     -0.2917
     26 O         -4.639959   -5.027644   5.754488 O.3        1 UNL1     -0.5058
     27 O         0.406938   -0.918049   2.354043 O.3        1 UNL1     -0.3648
     28 O         0.160836   -1.68217   -1.164157 O.3        1 UNL1     -0.3841
     29 O         -2.456389   0.184008   0.422778 O.3        1 UNL1     -0.3863
     30 O         -2.348226   -3.340668   -0.609245 O.3        1 UNL1     -0.3829
     31 H         1.093049   -2.213995   1.002095 H        1 UNL1     0.0937
     32 H         0.0   0.0   0.0 H        1 UNL1     0.0671
     33 H         -2.12973   -0.922052   -1.23664 H        1 UNL1     0.0649
     34 H         -3.668096   -2.130205   0.393082 H        1 UNL1     0.0683
     35 H         -2.505398   -3.711134   1.863812 H        1 UNL1     0.1085
     36 H         -4.248608   -3.87946   3.510424 H        1 UNL1     0.0691
     37 H         -1.144319   -1.225205   4.906315 H        1 UNL1     0.0691
     38 H         -0.874547   -4.433614   8.567729 H        1 UNL1     0.0385
     39 H         -2.02679   -4.123132   9.880924 H        1 UNL1     0.0385
     40 H         -0.630344   -2.111006   9.272126 H        1 UNL1     0.0789
     41 H         -4.039387   -1.963286   7.656068 H        1 UNL1     0.0623
     42 H         -5.8361   -0.503165   8.493952 H        1 UNL1     0.0654
     43 H         -3.376273   0.63035   11.827685 H        1 UNL1     0.0654
     44 H         -1.598353   -0.830276   11.045684 H        1 UNL1     0.0623
     45 H         -5.450533   1.90394   10.45221 H        1 UNL1     0.2921
     46 H         -4.243895   -5.754411   6.260803 H        1 UNL1     0.2922
     47 H         1.039161   -0.236246   2.087026 H        1 UNL1     0.2126
     48 H         -0.443808   -2.418617   -1.378129 H        1 UNL1     0.2101
     49 H         -2.794526   -0.013862   1.310643 H        1 UNL1     0.2100
     50 H         -2.847271   -3.132449   -1.426137 H        1 UNL1     0.2102
@<TRIPOS>BOND
     1     1     2    1
     2     1     6    1
     3     2     3    1
     4     3     4    1
     5     3    29    1
     6     3    33    1
     7     4     5    1
     8     5     6    1
     9     5     7    1
    10     5    35    1
    11     7     8    1
    12     8     9   ar
    13     8    13   ar
    14     9    10   ar
    15     9    36    1
    16    10    11   ar
    17    10    26    1
    18    11    12   ar
    19    11    14    1
    20    12    13   ar
    21    12    17    1
    22    13    37    1
    23    14    15    1
    24    14    25    2
    25    15    16    1
    26    15    38    1
    27    15    39    1
    28    16    17    1
    29    16    18    1
    30    16    40    1
    31    18    19   ar
    32    18    23   ar
    33    19    20   ar
    34    19    41    1
    35    20    21   ar
    36    20    42    1
    37    21    22   ar
    38    21    24    1
    39    22    23   ar
    40    22    43    1
    41    23    44    1
    42    24    45    1
    43    26    46    1
    44    27    47    1
    45    28    48    1
    46    29    49    1
    47    30    50    1
    48     1    31    1
    49     1    27    1
    50     2    32    1
    51     2    28    1
    52     4    34    1
    53     4    30    1
