@<TRIPOS>MOLECULE
*****
 50 53 0 0 0
SMALL
GASTEIGER

@<TRIPOS>ATOM
     1 C         0.082666   -0.394678   2.146672 C.3        1 UNL1     0.1889
     2 C         -0.699162   -0.089779   0.840639 C.3        1 UNL1     0.1342
     3 C         -1.577771   1.169261   0.898319 C.3        1 UNL1     0.1174
     4 C         -2.194637   1.399714   2.280161 C.3        1 UNL1     0.1456
     5 C         -1.169869   1.24019   3.418039 C.3        1 UNL1     0.2326
     6 O         -0.574802   -0.054104   3.35834 O.3        1 UNL1     -0.3076
     7 O         -0.203508   2.305312   3.472649 O.3        1 UNL1     -0.4605
     8 C         -0.625031   3.475871   4.077328 C.ar        1 UNL1     0.1310
     9 C         -1.673726   4.286816   3.630217 C.ar        1 UNL1     0.0226
     10 C         -2.037177   5.447564   4.323378 C.ar        1 UNL1     0.1343
     11 C         -1.375561   5.813121   5.494904 C.ar        1 UNL1     0.1007
     12 C         -0.299991   5.033514   5.928663 C.ar        1 UNL1     0.1389
     13 C         0.066974   3.867874   5.230056 C.ar        1 UNL1     0.0229
     14 C         -1.772504   6.98281   6.312472 C.2        1 UNL1     0.1740
     15 C         -1.101013   7.098478   7.64936 C.3        1 UNL1     0.0520
     16 C         0.363716   6.715947   7.487513 C.3        1 UNL1     0.1322
     17 O         0.489332   5.359285   7.007138 O.3        1 UNL1     -0.4828
     18 C         1.186427   7.743966   6.707099 C.ar        1 UNL1     -0.0067
     19 C         1.395114   7.558803   5.324934 C.ar        1 UNL1     -0.0516
     20 C         2.1819   8.454447   4.590938 C.ar        1 UNL1     -0.0198
     21 C         2.770188   9.532645   5.227519 C.ar        1 UNL1     0.1169
     22 C         2.555836   9.760273   6.580692 C.ar        1 UNL1     -0.0198
     23 C         1.754009   8.875067   7.311131 C.ar        1 UNL1     -0.0516
     24 O         3.560668   10.362433   4.48793 O.3        1 UNL1     -0.5068
     25 O         -2.648709   7.775689   5.977669 O.2        1 UNL1     -0.2917
     26 O         -3.068152   6.19537   3.83403 O.3        1 UNL1     -0.5058
     27 O         1.421174   0.075216   2.127096 O.3        1 UNL1     -0.3648
     28 O         -1.5655   -1.20409   0.556958 O.3        1 UNL1     -0.3841
     29 O         -0.86376   2.308455   0.414007 O.3        1 UNL1     -0.3863
     30 O         -3.266096   0.453185   2.484481 O.3        1 UNL1     -0.3829
     31 H         0.180207   -1.484207   2.205761 H        1 UNL1     0.0937
     32 H         0.0   0.0   0.0 H        1 UNL1     0.0671
     33 H         -2.412258   1.028252   0.197271 H        1 UNL1     0.0649
     34 H         -2.637361   2.400676   2.32987 H        1 UNL1     0.0683
     35 H         -1.780035   1.268975   4.329493 H        1 UNL1     0.1085
     36 H         -2.26324   4.027174   2.757762 H        1 UNL1     0.0691
     37 H         0.908693   3.278769   5.587766 H        1 UNL1     0.0691
     38 H         -1.613364   6.417513   8.337336 H        1 UNL1     0.0385
     39 H         -1.223062   8.120081   8.025138 H        1 UNL1     0.0385
     40 H         0.805335   6.69317   8.492985 H        1 UNL1     0.0789
     41 H         0.95179   6.715225   4.803886 H        1 UNL1     0.0623
     42 H         2.345083   8.294207   3.528062 H        1 UNL1     0.0654
     43 H         2.999437   10.60985   7.086011 H        1 UNL1     0.0654
     44 H         1.599318   9.089383   8.364214 H        1 UNL1     0.0623
     45 H         4.182481   9.819038   3.977256 H        1 UNL1     0.2921
     46 H         -3.85335   6.066422   4.389231 H        1 UNL1     0.2922
     47 H         1.436933   1.036877   2.023082 H        1 UNL1     0.2126
     48 H         -1.157663   -1.988258   0.972268 H        1 UNL1     0.2101
     49 H         -1.396776   3.109718   0.539167 H        1 UNL1     0.2100
     50 H         -3.908107   0.854148   3.106384 H        1 UNL1     0.2102
@<TRIPOS>BOND
     1     1     2    1
     2     1     6    1
     3     2     3    1
     4     3     4    1
     5     3    29    1
     6     3    33    1
     7     4     5    1
     8     5     6    1
     9     5     7    1
    10     5    35    1
    11     7     8    1
    12     8     9   ar
    13     8    13   ar
    14     9    10   ar
    15     9    36    1
    16    10    11   ar
    17    10    26    1
    18    11    12   ar
    19    11    14    1
    20    12    13   ar
    21    12    17    1
    22    13    37    1
    23    14    15    1
    24    14    25    2
    25    15    16    1
    26    15    38    1
    27    15    39    1
    28    16    17    1
    29    16    18    1
    30    16    40    1
    31    18    19   ar
    32    18    23   ar
    33    19    20   ar
    34    19    41    1
    35    20    21   ar
    36    20    42    1
    37    21    22   ar
    38    21    24    1
    39    22    23   ar
    40    22    43    1
    41    23    44    1
    42    24    45    1
    43    26    46    1
    44    27    47    1
    45    28    48    1
    46    29    49    1
    47    30    50    1
    48     1    31    1
    49     1    27    1
    50     2    32    1
    51     2    28    1
    52     4    34    1
    53     4    30    1
