@<TRIPOS>MOLECULE
*****
 50 53 0 0 0
SMALL
GASTEIGER

@<TRIPOS>ATOM
     1 C         1.002019   0.892728   1.72331 C.3        1 UNL1     0.1889
     2 C         1.025864   0.188638   0.339971 C.3        1 UNL1     0.1342
     3 C         1.815746   -1.128667   0.304453 C.3        1 UNL1     0.1174
     4 C         3.041086   -1.110861   1.2217 C.3        1 UNL1     0.1456
     5 C         2.722792   -0.553306   2.621052 C.3        1 UNL1     0.2326
     6 O         2.177424   0.759265   2.508807 O.3        1 UNL1     -0.3076
     7 O         1.913479   -1.435974   3.41932 O.3        1 UNL1     -0.4605
     8 C         0.899955   -2.099298   2.751263 C.ar        1 UNL1     0.1310
     9 C         -0.031821   -1.502954   1.894836 C.ar        1 UNL1     0.0226
     10 C         -1.013079   -2.264958   1.249556 C.ar        1 UNL1     0.1343
     11 C         -1.071521   -3.646644   1.426668 C.ar        1 UNL1     0.1007
     12 C         -0.172281   -4.247824   2.31139 C.ar        1 UNL1     0.1389
     13 C         0.812602   -3.481042   2.962145 C.ar        1 UNL1     0.0229
     14 C         -2.033885   -4.511052   0.704997 C.2        1 UNL1     0.1740
     15 C         -1.810708   -5.988335   0.844186 C.3        1 UNL1     0.0520
     16 C         -1.420786   -6.282939   2.286104 C.3        1 UNL1     0.1322
     17 O         -0.208783   -5.582372   2.642927 O.3        1 UNL1     -0.4828
     18 C         -2.569769   -6.110836   3.28257 C.ar        1 UNL1     -0.0067
     19 C         -3.713165   -6.928136   3.169084 C.ar        1 UNL1     -0.0516
     20 C         -4.801597   -6.764838   4.034307 C.ar        1 UNL1     -0.0198
     21 C         -4.762006   -5.785135   5.010239 C.ar        1 UNL1     0.1169
     22 C         -3.636438   -4.987046   5.168322 C.ar        1 UNL1     -0.0198
     23 C         -2.54041   -5.162445   4.315085 C.ar        1 UNL1     -0.0516
     24 O         -5.855964   -5.630343   5.810049 O.3        1 UNL1     -0.5068
     25 O         -2.915498   -4.074332   -0.030203 O.2        1 UNL1     -0.2917
     26 O         -1.892609   -1.622328   0.427949 O.3        1 UNL1     -0.5058
     27 O         -0.166754   0.616047   2.478429 O.3        1 UNL1     -0.3648
     28 O         1.633984   1.078631   -0.614392 O.3        1 UNL1     -0.3841
     29 O         0.955418   -2.242577   0.551787 O.3        1 UNL1     -0.3863
     30 O         4.070932   -0.296059   0.620698 O.3        1 UNL1     -0.3829
     31 H         0.946924   1.96883   1.525703 H        1 UNL1     0.0937
     32 H         0.0   -0.0   0.0 H        1 UNL1     0.0671
     33 H         2.1877   -1.269125   -0.720067 H        1 UNL1     0.0649
     34 H         3.449488   -2.122775   1.319877 H        1 UNL1     0.0683
     35 H         3.70703   -0.450302   3.094914 H        1 UNL1     0.1085
     36 H         -0.004217   -0.441937   1.672121 H        1 UNL1     0.0691
     37 H         1.500153   -3.972841   3.646908 H        1 UNL1     0.0691
     38 H         -1.008708   -6.268687   0.153009 H        1 UNL1     0.0385
     39 H         -2.721165   -6.518662   0.544855 H        1 UNL1     0.0385
     40 H         -1.148649   -7.345887   2.337127 H        1 UNL1     0.0789
     41 H         -3.772483   -7.6982   2.405452 H        1 UNL1     0.0623
     42 H         -5.682432   -7.393378   3.929052 H        1 UNL1     0.0654
     43 H         -3.588821   -4.22689   5.938911 H        1 UNL1     0.0654
     44 H         -1.673404   -4.528479   4.473928 H        1 UNL1     0.0623
     45 H         -6.288563   -4.792325   5.579184 H        1 UNL1     0.2921
     46 H         -1.493157   -1.51009   -0.449122 H        1 UNL1     0.2922
     47 H         -0.282104   1.280204   3.172295 H        1 UNL1     0.2126
     48 H         0.912919   1.419321   -1.178065 H        1 UNL1     0.2101
     49 H         0.261778   -1.99031   1.181881 H        1 UNL1     0.2100
     50 H         3.859886   -0.196721   -0.330777 H        1 UNL1     0.2102
@<TRIPOS>BOND
     1     1     2    1
     2     1     6    1
     3     2     3    1
     4     3     4    1
     5     3    29    1
     6     3    33    1
     7     4     5    1
     8     5     6    1
     9     5     7    1
    10     5    35    1
    11     7     8    1
    12     8     9   ar
    13     8    13   ar
    14     9    10   ar
    15     9    36    1
    16    10    11   ar
    17    10    26    1
    18    11    12   ar
    19    11    14    1
    20    12    13   ar
    21    12    17    1
    22    13    37    1
    23    14    15    1
    24    14    25    2
    25    15    16    1
    26    15    38    1
    27    15    39    1
    28    16    17    1
    29    16    18    1
    30    16    40    1
    31    18    19   ar
    32    18    23   ar
    33    19    20   ar
    34    19    41    1
    35    20    21   ar
    36    20    42    1
    37    21    22   ar
    38    21    24    1
    39    22    23   ar
    40    22    43    1
    41    23    44    1
    42    24    45    1
    43    26    46    1
    44    27    47    1
    45    28    48    1
    46    29    49    1
    47    30    50    1
    48     1    31    1
    49     1    27    1
    50     2    32    1
    51     2    28    1
    52     4    34    1
    53     4    30    1
