@<TRIPOS>MOLECULE
*****
 50 53 0 0 0
SMALL
GASTEIGER

@<TRIPOS>ATOM
     1 C         2.075823   0.430261   -0.525965 C.3        1 UNL1     0.1889
     2 C         0.669319   -0.136422   -0.858465 C.3        1 UNL1     0.1342
     3 C         0.655755   -1.61537   -1.274394 C.3        1 UNL1     0.1174
     4 C         1.897417   -2.018517   -2.073683 C.3        1 UNL1     0.1456
     5 C         3.202132   -1.510298   -1.43353 C.3        1 UNL1     0.2326
     6 O         3.152834   -0.092661   -1.289506 O.3        1 UNL1     -0.3076
     7 O         3.545025   -2.191484   -0.212985 O.3        1 UNL1     -0.4605
     8 C         4.89367   -2.253299   0.088452 C.ar        1 UNL1     0.1310
     9 C         5.589194   -3.409505   0.458228 C.ar        1 UNL1     0.0226
     10 C         6.962433   -3.372881   0.728001 C.ar        1 UNL1     0.1343
     11 C         7.678845   -2.182517   0.611271 C.ar        1 UNL1     0.1007
     12 C         6.987518   -1.013376   0.282698 C.ar        1 UNL1     0.1389
     13 C         5.60624   -1.049958   0.014068 C.ar        1 UNL1     0.0229
     14 C         9.145541   -2.103246   0.802775 C.2        1 UNL1     0.1740
     15 C         9.780564   -0.798377   0.421184 C.3        1 UNL1     0.0520
     16 C         8.868365   0.332569   0.875949 C.3        1 UNL1     0.1322
     17 O         7.572453   0.231108   0.245563 O.3        1 UNL1     -0.4828
     18 C         8.822376   0.514121   2.395044 C.ar        1 UNL1     -0.0067
     19 C         7.900921   1.421846   2.956444 C.ar        1 UNL1     -0.0516
     20 C         7.864944   1.646835   4.337766 C.ar        1 UNL1     -0.0198
     21 C         8.748138   0.977319   5.16574 C.ar        1 UNL1     0.1169
     22 C         9.64451   0.052424   4.646195 C.ar        1 UNL1     -0.0198
     23 C         9.668211   -0.186456   3.266909 C.ar        1 UNL1     -0.0516
     24 O         8.709232   1.250283   6.501546 O.3        1 UNL1     -0.5068
     25 O         9.831613   -3.053052   1.171092 O.2        1 UNL1     -0.2917
     26 O         7.5813   -4.535337   1.08477 O.3        1 UNL1     -0.5058
     27 O         2.370564   0.433187   0.861805 O.3        1 UNL1     -0.3648
     28 O         0.119181   0.621206   -1.952108 O.3        1 UNL1     -0.3841
     29 O         0.428102   -2.458193   -0.143043 O.3        1 UNL1     -0.3863
     30 O         1.795879   -1.480465   -3.410051 O.3        1 UNL1     -0.3829
     31 H         2.058672   1.490717   -0.800224 H        1 UNL1     0.0937
     32 H         0.0   0.0   0.0 H        1 UNL1     0.0671
     33 H         -0.210302   -1.770612   -1.932851 H        1 UNL1     0.0649
     34 H         1.942559   -3.10899   -2.169759 H        1 UNL1     0.0683
     35 H         3.968957   -1.727814   -2.18755 H        1 UNL1     0.1085
     36 H         5.100547   -4.376165   0.512199 H        1 UNL1     0.0691
     37 H         5.091055   -0.125699   -0.238566 H        1 UNL1     0.0691
     38 H         9.901579   -0.794754   -0.667333 H        1 UNL1     0.0385
     39 H         10.775051   -0.736565   0.876106 H        1 UNL1     0.0385
     40 H         9.291774   1.267354   0.484259 H        1 UNL1     0.0789
     41 H         7.203358   1.96661   2.32693 H        1 UNL1     0.0623
     42 H         7.157815   2.358138   4.757323 H        1 UNL1     0.0654
     43 H         10.330359   -0.488542   5.287191 H        1 UNL1     0.0654
     44 H         10.374238   -0.923517   2.896621 H        1 UNL1     0.0623
     45 H         8.64588   2.212334   6.616268 H        1 UNL1     0.2921
     46 H         7.623991   -5.127788   0.317573 H        1 UNL1     0.2922
     47 H         1.659642   0.866817   1.354162 H        1 UNL1     0.2126
     48 H         -0.121375   1.496816   -1.592703 H        1 UNL1     0.2101
     49 H         -0.174252   -3.179641   -0.384862 H        1 UNL1     0.2100
     50 H         1.058821   -1.938752   -3.864399 H        1 UNL1     0.2102
@<TRIPOS>BOND
     1     1     2    1
     2     1     6    1
     3     2     3    1
     4     3     4    1
     5     3    29    1
     6     3    33    1
     7     4     5    1
     8     5     6    1
     9     5     7    1
    10     5    35    1
    11     7     8    1
    12     8     9   ar
    13     8    13   ar
    14     9    10   ar
    15     9    36    1
    16    10    11   ar
    17    10    26    1
    18    11    12   ar
    19    11    14    1
    20    12    13   ar
    21    12    17    1
    22    13    37    1
    23    14    15    1
    24    14    25    2
    25    15    16    1
    26    15    38    1
    27    15    39    1
    28    16    17    1
    29    16    18    1
    30    16    40    1
    31    18    19   ar
    32    18    23   ar
    33    19    20   ar
    34    19    41    1
    35    20    21   ar
    36    20    42    1
    37    21    22   ar
    38    21    24    1
    39    22    23   ar
    40    22    43    1
    41    23    44    1
    42    24    45    1
    43    26    46    1
    44    27    47    1
    45    28    48    1
    46    29    49    1
    47    30    50    1
    48     1    31    1
    49     1    27    1
    50     2    32    1
    51     2    28    1
    52     4    34    1
    53     4    30    1
