@<TRIPOS>MOLECULE
*****
 50 53 0 0 0
SMALL
GASTEIGER

@<TRIPOS>ATOM
     1 C         -0.389673   -1.380388   1.647267 C.3        1 UNL1     0.1889
     2 C         -0.491758   -0.968516   0.153988 C.3        1 UNL1     0.1342
     3 C         -1.925024   -0.895613   -0.394555 C.3        1 UNL1     0.1174
     4 C         -2.848472   -1.953089   0.21545 C.3        1 UNL1     0.1456
     5 C         -2.716463   -2.039273   1.746956 C.3        1 UNL1     0.2326
     6 O         -1.362559   -2.308571   2.103736 O.3        1 UNL1     -0.3076
     7 O         -3.267256   -0.90132   2.434713 O.3        1 UNL1     -0.4605
     8 C         -3.80874   -1.151086   3.682888 C.ar        1 UNL1     0.1310
     9 C         -4.663479   -2.212989   3.997664 C.ar        1 UNL1     0.0226
     10 C         -5.14706   -2.391421   5.299283 C.ar        1 UNL1     0.1343
     11 C         -4.768205   -1.525149   6.323921 C.ar        1 UNL1     0.1007
     12 C         -3.947982   -0.437271   6.013215 C.ar        1 UNL1     0.1389
     13 C         -3.464   -0.256554   4.703813 C.ar        1 UNL1     0.0229
     14 C         -5.181863   -1.715391   7.733477 C.2        1 UNL1     0.1740
     15 C         -4.505046   -0.825749   8.734478 C.3        1 UNL1     0.0520
     16 C         -4.382417   0.568286   8.134823 C.3        1 UNL1     0.1322
     17 O         -3.600982   0.537073   6.920139 O.3        1 UNL1     -0.4828
     18 C         -5.718055   1.305501   8.011098 C.ar        1 UNL1     -0.0067
     19 C         -5.969691   2.424986   8.83064 C.ar        1 UNL1     -0.0516
     20 C         -7.198772   3.093109   8.776488 C.ar        1 UNL1     -0.0198
     21 C         -8.184819   2.64808   7.914231 C.ar        1 UNL1     0.1169
     22 C         -7.954786   1.569015   7.070701 C.ar        1 UNL1     -0.0198
     23 C         -6.719149   0.912054   7.111428 C.ar        1 UNL1     -0.0516
     24 O         -9.382574   3.300598   7.916266 O.3        1 UNL1     -0.5068
     25 O         -5.964296   -2.589809   8.09635 O.2        1 UNL1     -0.2917
     26 O         -5.978115   -3.44639   5.540063 O.3        1 UNL1     -0.5058
     27 O         -0.263094   -0.277415   2.530564 O.3        1 UNL1     -0.3648
     28 O         0.220602   -1.938345   -0.636379 O.3        1 UNL1     -0.3841
     29 O         -2.446614   0.429515   -0.275759 O.3        1 UNL1     -0.3863
     30 O         -2.530836   -3.242998   -0.351059 O.3        1 UNL1     -0.3829
     31 H         0.554823   -1.92423   1.757907 H        1 UNL1     0.0937
     32 H         0.0   0.0   0.0 H        1 UNL1     0.0671
     33 H         -1.881516   -1.096347   -1.474154 H        1 UNL1     0.0649
     34 H         -3.889996   -1.735805   -0.046115 H        1 UNL1     0.0683
     35 H         -3.299595   -2.929804   2.013022 H        1 UNL1     0.1085
     36 H         -4.950095   -2.952722   3.258227 H        1 UNL1     0.0691
     37 H         -2.827782   0.598994   4.487578 H        1 UNL1     0.0691
     38 H         -3.518915   -1.253554   8.944373 H        1 UNL1     0.0385
     39 H         -5.083437   -0.826943   9.664661 H        1 UNL1     0.0385
     40 H         -3.782479   1.168882   8.831873 H        1 UNL1     0.0789
     41 H         -5.215311   2.788324   9.522411 H        1 UNL1     0.0623
     42 H         -7.385019   3.947841   9.422056 H        1 UNL1     0.0654
     43 H         -8.714599   1.221489   6.380904 H        1 UNL1     0.0654
     44 H         -6.570093   0.079317   6.430857 H        1 UNL1     0.0623
     45 H         -9.400575   3.91099   7.161406 H        1 UNL1     0.2921
     46 H         -5.774128   -3.827202   6.408846 H        1 UNL1     0.2922
     47 H         0.579887   0.173955   2.383906 H        1 UNL1     0.2126
     48 H         -0.171135   -1.912537   -1.530587 H        1 UNL1     0.2101
     49 H         -3.002406   0.495561   0.517038 H        1 UNL1     0.2100
     50 H         -1.588352   -3.431639   -0.161717 H        1 UNL1     0.2102
@<TRIPOS>BOND
     1     1     2    1
     2     1     6    1
     3     2     3    1
     4     3     4    1
     5     3    29    1
     6     3    33    1
     7     4     5    1
     8     5     6    1
     9     5     7    1
    10     5    35    1
    11     7     8    1
    12     8     9   ar
    13     8    13   ar
    14     9    10   ar
    15     9    36    1
    16    10    11   ar
    17    10    26    1
    18    11    12   ar
    19    11    14    1
    20    12    13   ar
    21    12    17    1
    22    13    37    1
    23    14    15    1
    24    14    25    2
    25    15    16    1
    26    15    38    1
    27    15    39    1
    28    16    17    1
    29    16    18    1
    30    16    40    1
    31    18    19   ar
    32    18    23   ar
    33    19    20   ar
    34    19    41    1
    35    20    21   ar
    36    20    42    1
    37    21    22   ar
    38    21    24    1
    39    22    23   ar
    40    22    43    1
    41    23    44    1
    42    24    45    1
    43    26    46    1
    44    27    47    1
    45    28    48    1
    46    29    49    1
    47    30    50    1
    48     1    31    1
    49     1    27    1
    50     2    32    1
    51     2    28    1
    52     4    34    1
    53     4    30    1
