@<TRIPOS>MOLECULE
*****
 50 53 0 0 0
SMALL
GASTEIGER

@<TRIPOS>ATOM
     1 C         -0.369456   -1.397427   1.63753 C.3        1 UNL1     0.1889
     2 C         -0.487181   -0.971552   0.149339 C.3        1 UNL1     0.1342
     3 C         -1.925872   -0.898059   -0.384732 C.3        1 UNL1     0.1174
     4 C         -2.84006   -1.96436   0.223856 C.3        1 UNL1     0.1456
     5 C         -2.693078   -2.064834   1.753125 C.3        1 UNL1     0.2326
     6 O         -1.334963   -2.333128   2.094316 O.3        1 UNL1     -0.3076
     7 O         -3.240849   -0.935351   2.457068 O.3        1 UNL1     -0.4605
     8 C         -3.769527   -1.198873   3.707901 C.ar        1 UNL1     0.1310
     9 C         -4.612263   -2.270495   4.022106 C.ar        1 UNL1     0.0226
     10 C         -5.083212   -2.462564   5.326414 C.ar        1 UNL1     0.1343
     11 C         -4.703258   -1.600416   6.354118 C.ar        1 UNL1     0.1007
     12 C         -3.895228   -0.503153   6.044462 C.ar        1 UNL1     0.1389
     13 C         -3.423965   -0.308739   4.732385 C.ar        1 UNL1     0.0229
     14 C         -5.10327   -1.804459   7.765681 C.2        1 UNL1     0.1740
     15 C         -4.425781   -0.916151   8.767412 C.3        1 UNL1     0.0520
     16 C         -4.320417   0.483201   8.17693 C.3        1 UNL1     0.1322
     17 O         -3.549069   0.46763   6.955516 O.3        1 UNL1     -0.4828
     18 C         -5.663442   1.20952   8.069832 C.ar        1 UNL1     -0.0067
     19 C         -5.686752   2.572894   7.710833 C.ar        1 UNL1     -0.0516
     20 C         -6.89402   3.279122   7.649941 C.ar        1 UNL1     -0.0198
     21 C         -8.081336   2.636677   7.952222 C.ar        1 UNL1     0.1169
     22 C         -8.094109   1.286302   8.276509 C.ar        1 UNL1     -0.0198
     23 C         -6.888886   0.575215   8.319512 C.ar        1 UNL1     -0.0516
     24 O         -9.23325   3.366332   7.919059 O.3        1 UNL1     -0.5068
     25 O         -5.874934   -2.688319   8.128739 O.2        1 UNL1     -0.2917
     26 O         -5.902952   -3.52651   5.566479 O.3        1 UNL1     -0.5058
     27 O         -0.2379   -0.30259   2.530173 O.3        1 UNL1     -0.3648
     28 O         0.220629   -1.931407   -0.657128 O.3        1 UNL1     -0.3841
     29 O         -2.4505   0.424155   -0.248172 O.3        1 UNL1     -0.3863
     30 O         -2.523788   -3.247719   -0.358083 O.3        1 UNL1     -0.3829
     31 H         0.577781   -1.939221   1.733874 H        1 UNL1     0.0937
     32 H         0.0   0.0   0.0 H        1 UNL1     0.0671
     33 H         -1.892097   -1.08826   -1.466584 H        1 UNL1     0.0649
     34 H         -3.884732   -1.747974   -0.02562 H        1 UNL1     0.0683
     35 H         -3.2708   -2.959781   2.016159 H        1 UNL1     0.1085
     36 H         -4.89867   -3.007361   3.279732 H        1 UNL1     0.0691
     37 H         -2.797097   0.553908   4.517049 H        1 UNL1     0.0691
     38 H         -3.434208   -1.336774   8.965873 H        1 UNL1     0.0385
     39 H         -4.996231   -0.929146   9.702397 H        1 UNL1     0.0385
     40 H         -3.719855   1.084   8.873267 H        1 UNL1     0.0789
     41 H         -4.767403   3.102207   7.477863 H        1 UNL1     0.0623
     42 H         -6.897674   4.333143   7.383411 H        1 UNL1     0.0654
     43 H         -9.019783   0.769654   8.500367 H        1 UNL1     0.0654
     44 H         -6.937138   -0.481029   8.566219 H        1 UNL1     0.0623
     45 H         -9.190271   4.039243   8.617672 H        1 UNL1     0.2921
     46 H         -5.529956   -4.067733   6.280175 H        1 UNL1     0.2922
     47 H         0.506833   0.256101   2.267313 H        1 UNL1     0.2126
     48 H         1.172737   -1.778811   -0.502409 H        1 UNL1     0.2101
     49 H         -2.135371   0.981209   -0.977678 H        1 UNL1     0.2100
     50 H         -2.781121   -3.221964   -1.30298 H        1 UNL1     0.2102
@<TRIPOS>BOND
     1     1     2    1
     2     1     6    1
     3     2     3    1
     4     3     4    1
     5     3    29    1
     6     3    33    1
     7     4     5    1
     8     5     6    1
     9     5     7    1
    10     5    35    1
    11     7     8    1
    12     8     9   ar
    13     8    13   ar
    14     9    10   ar
    15     9    36    1
    16    10    11   ar
    17    10    26    1
    18    11    12   ar
    19    11    14    1
    20    12    13   ar
    21    12    17    1
    22    13    37    1
    23    14    15    1
    24    14    25    2
    25    15    16    1
    26    15    38    1
    27    15    39    1
    28    16    17    1
    29    16    18    1
    30    16    40    1
    31    18    19   ar
    32    18    23   ar
    33    19    20   ar
    34    19    41    1
    35    20    21   ar
    36    20    42    1
    37    21    22   ar
    38    21    24    1
    39    22    23   ar
    40    22    43    1
    41    23    44    1
    42    24    45    1
    43    26    46    1
    44    27    47    1
    45    28    48    1
    46    29    49    1
    47    30    50    1
    48     1    31    1
    49     1    27    1
    50     2    32    1
    51     2    28    1
    52     4    34    1
    53     4    30    1
