@<TRIPOS>MOLECULE
*****
 50 53 0 0 0
SMALL
GASTEIGER

@<TRIPOS>ATOM
     1 C         -0.315919   -1.374411   1.667931 C.3        1 UNL1     0.1889
     2 C         -0.460072   -0.980762   0.173206 C.3        1 UNL1     0.1342
     3 C         -1.905624   -0.954981   -0.346582 C.3        1 UNL1     0.1174
     4 C         -2.785323   -2.032575   0.292198 C.3        1 UNL1     0.1456
     5 C         -2.620001   -2.099436   1.821434 C.3        1 UNL1     0.2326
     6 O         -1.251895   -2.325756   2.152996 O.3        1 UNL1     -0.3076
     7 O         -3.189797   -0.971047   2.509469 O.3        1 UNL1     -0.4605
     8 C         -3.698481   -1.223798   3.770772 C.ar        1 UNL1     0.1310
     9 C         -4.512498   -2.308698   4.1138 C.ar        1 UNL1     0.0226
     10 C         -4.964556   -2.487714   5.426621 C.ar        1 UNL1     0.1343
     11 C         -4.593615   -1.598347   6.434228 C.ar        1 UNL1     0.1007
     12 C         -3.814841   -0.488537   6.095679 C.ar        1 UNL1     0.1389
     13 C         -3.362608   -0.307313   4.775045 C.ar        1 UNL1     0.0229
     14 C         -4.973308   -1.785728   7.853691 C.2        1 UNL1     0.1740
     15 C         -4.305825   -0.863807   8.831482 C.3        1 UNL1     0.0520
     16 C         -4.239601   0.52657   8.214697 C.3        1 UNL1     0.1322
     17 O         -3.481493   0.506501   6.985087 O.3        1 UNL1     -0.4828
     18 C         -5.600298   1.219547   8.109766 C.ar        1 UNL1     -0.0067
     19 C         -5.732536   2.367073   7.301119 C.ar        1 UNL1     -0.0516
     20 C         -6.950651   3.052362   7.220261 C.ar        1 UNL1     -0.0198
     21 C         -8.039486   2.605471   7.947279 C.ar        1 UNL1     0.1169
     22 C         -7.949607   1.459196   8.726263 C.ar        1 UNL1     -0.0198
     23 C         -6.736724   0.763108   8.792844 C.ar        1 UNL1     -0.0516
     24 O         -9.198753   3.320317   7.873149 O.3        1 UNL1     -0.5068
     25 O         -5.720125   -2.68041   8.241368 O.2        1 UNL1     -0.2917
     26 O         -5.756575   -3.565766   5.695127 O.3        1 UNL1     -0.5058
     27 O         -0.203805   -0.259374   2.537936 O.3        1 UNL1     -0.3648
     28 O         0.264212   -1.937458   -0.622313 O.3        1 UNL1     -0.3841
     29 O         -2.463172   0.355599   -0.229739 O.3        1 UNL1     -0.3863
     30 O         -2.441658   -3.318384   -0.268407 O.3        1 UNL1     -0.3829
     31 H         0.646088   -1.889498   1.764396 H        1 UNL1     0.0937
     32 H         0.0   0.0   0.0 H        1 UNL1     0.0671
     33 H         -1.878053   -1.165253   -1.424889 H        1 UNL1     0.0649
     34 H         -3.837808   -1.848228   0.049934 H        1 UNL1     0.0683
     35 H         -3.171407   -3.003768   2.107818 H        1 UNL1     0.1085
     36 H         -4.789729   -3.065451   3.388136 H        1 UNL1     0.0691
     37 H         -2.758431   0.565519   4.537083 H        1 UNL1     0.0691
     38 H         -3.302598   -1.257679   9.026231 H        1 UNL1     0.0385
     39 H         -4.865565   -0.872885   9.772964 H        1 UNL1     0.0385
     40 H         -3.645648   1.15374   8.893223 H        1 UNL1     0.0789
     41 H         -4.890211   2.743261   6.727864 H        1 UNL1     0.0623
     42 H         -7.036706   3.942853   6.602498 H        1 UNL1     0.0654
     43 H         -8.800246   1.09186   9.287856 H        1 UNL1     0.0654
     44 H         -6.70529   -0.134462   9.402945 H        1 UNL1     0.0623
     45 H         -9.033495   4.209998   8.225106 H        1 UNL1     0.2921
     46 H         -5.363274   -4.085068   6.41419 H        1 UNL1     0.2922
     47 H         0.52333   0.31321   2.256369 H        1 UNL1     0.2126
     48 H         1.210206   -1.817411   -0.411565 H        1 UNL1     0.2101
     49 H         -2.036553   0.95348   -0.864033 H        1 UNL1     0.2100
     50 H         -2.709308   -3.317694   -1.210785 H        1 UNL1     0.2102
@<TRIPOS>BOND
     1     1     2    1
     2     1     6    1
     3     2     3    1
     4     3     4    1
     5     3    29    1
     6     3    33    1
     7     4     5    1
     8     5     6    1
     9     5     7    1
    10     5    35    1
    11     7     8    1
    12     8     9   ar
    13     8    13   ar
    14     9    10   ar
    15     9    36    1
    16    10    11   ar
    17    10    26    1
    18    11    12   ar
    19    11    14    1
    20    12    13   ar
    21    12    17    1
    22    13    37    1
    23    14    15    1
    24    14    25    2
    25    15    16    1
    26    15    38    1
    27    15    39    1
    28    16    17    1
    29    16    18    1
    30    16    40    1
    31    18    19   ar
    32    18    23   ar
    33    19    20   ar
    34    19    41    1
    35    20    21   ar
    36    20    42    1
    37    21    22   ar
    38    21    24    1
    39    22    23   ar
    40    22    43    1
    41    23    44    1
    42    24    45    1
    43    26    46    1
    44    27    47    1
    45    28    48    1
    46    29    49    1
    47    30    50    1
    48     1    31    1
    49     1    27    1
    50     2    32    1
    51     2    28    1
    52     4    34    1
    53     4    30    1
