@<TRIPOS>MOLECULE
*****
 50 53 0 0 0
SMALL
GASTEIGER

@<TRIPOS>ATOM
     1 C         -0.335236   -1.330369   1.69957 C.3        1 UNL1     0.1889
     2 C         -0.464016   -0.975017   0.193887 C.3        1 UNL1     0.1342
     3 C         -1.904413   -0.959603   -0.34042 C.3        1 UNL1     0.1174
     4 C         -2.792761   -2.018561   0.317276 C.3        1 UNL1     0.1456
     5 C         -2.642382   -2.04639   1.84926 C.3        1 UNL1     0.2326
     6 O         -1.278077   -2.266959   2.199816 O.3        1 UNL1     -0.3076
     7 O         -3.216161   -0.899481   2.502481 O.3        1 UNL1     -0.4605
     8 C         -4.56585   -0.689505   2.283901 C.ar        1 UNL1     0.1310
     9 C         -5.204945   -0.752877   1.040984 C.ar        1 UNL1     0.0226
     10 C         -6.58388   -0.541005   0.924574 C.ar        1 UNL1     0.1343
     11 C         -7.361835   -0.283876   2.052631 C.ar        1 UNL1     0.1007
     12 C         -6.728575   -0.177544   3.293783 C.ar        1 UNL1     0.1389
     13 C         -5.341642   -0.388007   3.410207 C.ar        1 UNL1     0.0229
     14 C         -8.834632   -0.135296   1.998371 C.2        1 UNL1     0.1740
     15 C         -9.531637   -0.086473   3.326283 C.3        1 UNL1     0.0520
     16 C         -8.693546   0.754101   4.279695 C.3        1 UNL1     0.1322
     17 O         -7.380064   0.177793   4.452042 O.3        1 UNL1     -0.4828
     18 C         -8.692045   2.247754   3.945447 C.ar        1 UNL1     -0.0067
     19 C         -7.471308   2.89148   3.656256 C.ar        1 UNL1     -0.0516
     20 C         -7.428689   4.265842   3.393052 C.ar        1 UNL1     -0.0198
     21 C         -8.596256   5.007263   3.423184 C.ar        1 UNL1     0.1169
     22 C         -9.818145   4.395736   3.671906 C.ar        1 UNL1     -0.0198
     23 C         -9.863451   3.018073   3.916952 C.ar        1 UNL1     -0.0516
     24 O         -8.510711   6.34999   3.199203 O.3        1 UNL1     -0.5068
     25 O         -9.475609   -0.13108   0.950699 O.2        1 UNL1     -0.2917
     26 O         -7.145815   -0.615668   -0.31649 O.3        1 UNL1     -0.5058
     27 O         -0.228929   -0.193548   2.541665 O.3        1 UNL1     -0.3648
     28 O         0.265683   -1.953379   -0.56969 O.3        1 UNL1     -0.3841
     29 O         -2.459998   0.354712   -0.262741 O.3        1 UNL1     -0.3863
     30 O         -2.446701   -3.319086   -0.206714 O.3        1 UNL1     -0.3829
     31 H         0.624588   -1.844811   1.818595 H        1 UNL1     0.0937
     32 H         0.0   0.0   0.0 H        1 UNL1     0.0671
     33 H         -1.866914   -1.197613   -1.412644 H        1 UNL1     0.0649
     34 H         -3.842422   -1.838312   0.060132 H        1 UNL1     0.0683
     35 H         -3.198642   -2.941899   2.153429 H        1 UNL1     0.1085
     36 H         -4.665231   -1.00385   0.134429 H        1 UNL1     0.0691
     37 H         -4.872468   -0.298484   4.387629 H        1 UNL1     0.0691
     38 H         -9.627971   -1.115821   3.687792 H        1 UNL1     0.0385
     39 H         -10.538071   0.323278   3.188541 H        1 UNL1     0.0385
     40 H         -9.158732   0.678825   5.271893 H        1 UNL1     0.0789
     41 H         -6.539786   2.333367   3.635554 H        1 UNL1     0.0623
     42 H         -6.479603   4.752838   3.183096 H        1 UNL1     0.0654
     43 H         -10.740442   4.964202   3.68306 H        1 UNL1     0.0654
     44 H         -10.836541   2.571452   4.097147 H        1 UNL1     0.0623
     45 H         -7.946344   6.740175   3.886198 H        1 UNL1     0.2921
     46 H         -7.85359   -1.279328   -0.311761 H        1 UNL1     0.2922
     47 H         0.515071   0.359519   2.265186 H        1 UNL1     0.2126
     48 H         1.198478   -1.889327   -0.287692 H        1 UNL1     0.2101
     49 H         -2.019907   0.937345   -0.902 H        1 UNL1     0.2100
     50 H         -2.679236   -3.332386   -1.158272 H        1 UNL1     0.2102
@<TRIPOS>BOND
     1     1     2    1
     2     1     6    1
     3     2     3    1
     4     3     4    1
     5     3    29    1
     6     3    33    1
     7     4     5    1
     8     5     6    1
     9     5     7    1
    10     5    35    1
    11     7     8    1
    12     8     9   ar
    13     8    13   ar
    14     9    10   ar
    15     9    36    1
    16    10    11   ar
    17    10    26    1
    18    11    12   ar
    19    11    14    1
    20    12    13   ar
    21    12    17    1
    22    13    37    1
    23    14    15    1
    24    14    25    2
    25    15    16    1
    26    15    38    1
    27    15    39    1
    28    16    17    1
    29    16    18    1
    30    16    40    1
    31    18    19   ar
    32    18    23   ar
    33    19    20   ar
    34    19    41    1
    35    20    21   ar
    36    20    42    1
    37    21    22   ar
    38    21    24    1
    39    22    23   ar
    40    22    43    1
    41    23    44    1
    42    24    45    1
    43    26    46    1
    44    27    47    1
    45    28    48    1
    46    29    49    1
    47    30    50    1
    48     1    31    1
    49     1    27    1
    50     2    32    1
    51     2    28    1
    52     4    34    1
    53     4    30    1
