@<TRIPOS>MOLECULE
*****
 50 53 0 0 0
SMALL
GASTEIGER

@<TRIPOS>ATOM
     1 C         -0.213335   -1.185002   1.822378 C.3        1 UNL1     0.1889
     2 C         -0.521982   -0.908056   0.326391 C.3        1 UNL1     0.1342
     3 C         -2.015984   -0.774134   -0.006006 C.3        1 UNL1     0.1174
     4 C         -2.897569   -1.693747   0.842663 C.3        1 UNL1     0.1456
     5 C         -2.532767   -1.646232   2.337663 C.3        1 UNL1     0.2326
     6 O         -1.159517   -1.986781   2.51396 O.3        1 UNL1     -0.3076
     7 O         -2.895558   -0.409011   2.977183 O.3        1 UNL1     -0.4605
     8 C         -3.238426   -0.495638   4.314518 C.ar        1 UNL1     0.1310
     9 C         -4.093311   -1.452824   4.871536 C.ar        1 UNL1     0.0226
     10 C         -4.365991   -1.468076   6.244604 C.ar        1 UNL1     0.1343
     11 C         -3.771044   -0.540205   7.09838 C.ar        1 UNL1     0.1007
     12 C         -2.947871   0.445837   6.548024 C.ar        1 UNL1     0.1389
     13 C         -2.675938   0.462583   5.167009 C.ar        1 UNL1     0.0229
     14 C         -3.957842   -0.562332   8.567655 C.2        1 UNL1     0.1740
     15 C         -3.072027   0.363256   9.348787 C.3        1 UNL1     0.0520
     16 C         -2.964346   1.679932   8.592 C.3        1 UNL1     0.1322
     17 O         -2.397023   1.472213   7.279724 O.3        1 UNL1     -0.4828
     18 C         -4.254237   2.503824   8.602299 C.ar        1 UNL1     -0.0067
     19 C         -4.747857   3.032713   7.391998 C.ar        1 UNL1     -0.0516
     20 C         -5.898501   3.829965   7.372816 C.ar        1 UNL1     -0.0198
     21 C         -6.55889   4.11106   8.555482 C.ar        1 UNL1     0.1169
     22 C         -6.116279   3.577189   9.758776 C.ar        1 UNL1     -0.0198
     23 C         -4.976233   2.764747   9.775771 C.ar        1 UNL1     -0.0516
     24 O         -7.654213   4.922158   8.502689 O.3        1 UNL1     -0.5068
     25 O         -4.722098   -1.334508   9.140491 O.2        1 UNL1     -0.2917
     26 O         -5.209318   -2.427284   6.724505 O.3        1 UNL1     -0.5058
     27 O         0.119927   -0.017562   2.556412 O.3        1 UNL1     -0.3648
     28 O         -0.005375   -2.000762   -0.455796 O.3        1 UNL1     -0.3841
     29 O         -2.427338   0.59326   0.050161 O.3        1 UNL1     -0.3863
     30 O         -2.755204   -3.05205   0.37316 O.3        1 UNL1     -0.3829
     31 H         0.700388   -1.788821   1.8467 H        1 UNL1     0.0937
     32 H         0.0   0.0   0.0 H        1 UNL1     0.0671
     33 H         -2.15514   -1.077911   -1.052942 H        1 UNL1     0.0649
     34 H         -3.951311   -1.42052   0.718663 H        1 UNL1     0.0683
     35 H         -3.122282   -2.45919   2.779762 H        1 UNL1     0.1085
     36 H         -4.54271   -2.235108   4.269712 H        1 UNL1     0.0691
     37 H         -2.032632   1.241412   4.763183 H        1 UNL1     0.0691
     38 H         -2.092988   -0.118126   9.44513 H        1 UNL1     0.0385
     39 H         -3.48831   0.495858   10.353229 H        1 UNL1     0.0385
     40 H         -2.222037   2.295678   9.117694 H        1 UNL1     0.0789
     41 H         -4.242347   2.834182   6.451415 H        1 UNL1     0.0623
     42 H         -6.262413   4.241745   6.434723 H        1 UNL1     0.0654
     43 H         -6.63451   3.778598   10.688713 H        1 UNL1     0.0654
     44 H         -4.664757   2.355874   10.732145 H        1 UNL1     0.0623
     45 H         -7.380537   5.784547   8.150406 H        1 UNL1     0.2921
     46 H         -4.759   -2.937284   7.416261 H        1 UNL1     0.2922
     47 H         0.865824   0.437483   2.141162 H        1 UNL1     0.2126
     48 H         0.960003   -2.017785   -0.309211 H        1 UNL1     0.2101
     49 H         -2.029815   1.087895   -0.684077 H        1 UNL1     0.2100
     50 H         -3.12176   -3.09741   -0.534194 H        1 UNL1     0.2102
@<TRIPOS>BOND
     1     1     2    1
     2     1     6    1
     3     2     3    1
     4     3     4    1
     5     3    29    1
     6     3    33    1
     7     4     5    1
     8     5     6    1
     9     5     7    1
    10     5    35    1
    11     7     8    1
    12     8     9   ar
    13     8    13   ar
    14     9    10   ar
    15     9    36    1
    16    10    11   ar
    17    10    26    1
    18    11    12   ar
    19    11    14    1
    20    12    13   ar
    21    12    17    1
    22    13    37    1
    23    14    15    1
    24    14    25    2
    25    15    16    1
    26    15    38    1
    27    15    39    1
    28    16    17    1
    29    16    18    1
    30    16    40    1
    31    18    19   ar
    32    18    23   ar
    33    19    20   ar
    34    19    41    1
    35    20    21   ar
    36    20    42    1
    37    21    22   ar
    38    21    24    1
    39    22    23   ar
    40    22    43    1
    41    23    44    1
    42    24    45    1
    43    26    46    1
    44    27    47    1
    45    28    48    1
    46    29    49    1
    47    30    50    1
    48     1    31    1
    49     1    27    1
    50     2    32    1
    51     2    28    1
    52     4    34    1
    53     4    30    1
