@<TRIPOS>MOLECULE
*****
 50 53 0 0 0
SMALL
GASTEIGER

@<TRIPOS>ATOM
     1 C         -1.462892   -0.919181   -1.33636 C.3        1 UNL1     0.1889
     2 C         -0.002231   -0.641874   -0.889693 C.3        1 UNL1     0.1342
     3 C         0.888477   -0.006438   -1.968268 C.3        1 UNL1     0.1174
     4 C         0.556165   -0.499712   -3.378718 C.3        1 UNL1     0.1456
     5 C         -0.956627   -0.494358   -3.664715 C.3        1 UNL1     0.2326
     6 O         -1.63722   -1.289112   -2.696196 O.3        1 UNL1     -0.3076
     7 O         -1.509442   0.827374   -3.801605 O.3        1 UNL1     -0.4605
     8 C         -1.447837   1.382147   -5.067291 C.ar        1 UNL1     0.1310
     9 C         -2.288068   2.390333   -5.551929 C.ar        1 UNL1     0.0226
     10 C         -2.134771   2.899956   -6.846798 C.ar        1 UNL1     0.1343
     11 C         -1.121286   2.42993   -7.680922 C.ar        1 UNL1     0.1007
     12 C         -0.302076   1.39463   -7.222847 C.ar        1 UNL1     0.1389
     13 C         -0.458106   0.880536   -5.921773 C.ar        1 UNL1     0.0229
     14 C         -0.861098   2.990908   -9.026938 C.2        1 UNL1     0.1740
     15 C         0.400159   2.523902   -9.692283 C.3        1 UNL1     0.0520
     16 C         0.567287   1.035775   -9.417506 C.3        1 UNL1     0.1322
     17 O         0.655971   0.783247   -7.997846 O.3        1 UNL1     -0.4828
     18 C         -0.443445   0.155414   -10.156499 C.ar        1 UNL1     -0.0067
     19 C         -0.000599   -0.676986   -11.204931 C.ar        1 UNL1     -0.0516
     20 C         -0.905689   -1.458979   -11.932435 C.ar        1 UNL1     -0.0198
     21 C         -2.254091   -1.411963   -11.626775 C.ar        1 UNL1     0.1169
     22 C         -2.716342   -0.627513   -10.578061 C.ar        1 UNL1     -0.0198
     23 C         -1.80909   0.140504   -9.838399 C.ar        1 UNL1     -0.0516
     24 O         -3.110453   -2.158459   -12.381618 O.3        1 UNL1     -0.5068
     25 O         -1.57132   3.843879   -9.552782 O.2        1 UNL1     -0.2917
     26 O         -2.98774   3.881797   -7.259129 O.3        1 UNL1     -0.5058
     27 O         -2.375025   0.095954   -0.948673 O.3        1 UNL1     -0.3648
     28 O         0.605137   -1.892079   -0.514463 O.3        1 UNL1     -0.3841
     29 O         0.8743   1.418618   -1.862678 O.3        1 UNL1     -0.3863
     30 O         1.054091   -1.845796   -3.539398 O.3        1 UNL1     -0.3829
     31 H         -1.795637   -1.805512   -0.7852 H        1 UNL1     0.0937
     32 H         0.0   0.0   0.0 H        1 UNL1     0.0671
     33 H         1.926514   -0.303832   -1.763927 H        1 UNL1     0.0649
     34 H         1.067016   0.121925   -4.122356 H        1 UNL1     0.0683
     35 H         -1.046031   -1.016523   -4.625563 H        1 UNL1     0.1085
     36 H         -3.058875   2.836624   -4.933218 H        1 UNL1     0.0691
     37 H         0.191778   0.07387   -5.589457 H        1 UNL1     0.0691
     38 H         1.230438   3.099348   -9.26917 H        1 UNL1     0.0385
     39 H         0.343071   2.743223   -10.763926 H        1 UNL1     0.0385
     40 H         1.550164   0.742425   -9.810468 H        1 UNL1     0.0789
     41 H         1.051515   -0.724659   -11.470328 H        1 UNL1     0.0623
     42 H         -0.553407   -2.087757   -12.746405 H        1 UNL1     0.0654
     43 H         -3.768233   -0.594764   -10.320452 H        1 UNL1     0.0654
     44 H         -2.203721   0.733644   -9.019073 H        1 UNL1     0.0623
     45 H         -3.647539   -1.556444   -12.921834 H        1 UNL1     0.2921
     46 H         -3.778475   3.88055   -6.696857 H        1 UNL1     0.2922
     47 H         -1.92454   0.950784   -0.901873 H        1 UNL1     0.2126
     48 H         1.550402   -1.825846   -0.750725 H        1 UNL1     0.2101
     49 H         0.554279   1.807822   -2.692076 H        1 UNL1     0.2100
     50 H         1.922954   -1.794212   -3.988986 H        1 UNL1     0.2102
@<TRIPOS>BOND
     1     1     2    1
     2     1     6    1
     3     2     3    1
     4     3     4    1
     5     3    29    1
     6     3    33    1
     7     4     5    1
     8     5     6    1
     9     5     7    1
    10     5    35    1
    11     7     8    1
    12     8     9   ar
    13     8    13   ar
    14     9    10   ar
    15     9    36    1
    16    10    11   ar
    17    10    26    1
    18    11    12   ar
    19    11    14    1
    20    12    13   ar
    21    12    17    1
    22    13    37    1
    23    14    15    1
    24    14    25    2
    25    15    16    1
    26    15    38    1
    27    15    39    1
    28    16    17    1
    29    16    18    1
    30    16    40    1
    31    18    19   ar
    32    18    23   ar
    33    19    20   ar
    34    19    41    1
    35    20    21   ar
    36    20    42    1
    37    21    22   ar
    38    21    24    1
    39    22    23   ar
    40    22    43    1
    41    23    44    1
    42    24    45    1
    43    26    46    1
    44    27    47    1
    45    28    48    1
    46    29    49    1
    47    30    50    1
    48     1    31    1
    49     1    27    1
    50     2    32    1
    51     2    28    1
    52     4    34    1
    53     4    30    1
