@<TRIPOS>MOLECULE
*****
 50 53 0 0 0
SMALL
GASTEIGER

@<TRIPOS>ATOM
     1 C         -0.359039   -1.362056   1.669341 C.3        1 UNL1     0.1889
     2 C         -0.443708   -0.989738   0.164632 C.3        1 UNL1     0.1342
     3 C         -1.864001   -1.005866   -0.421009 C.3        1 UNL1     0.1174
     4 C         -2.745858   -2.097296   0.190731 C.3        1 UNL1     0.1456
     5 C         -2.649539   -2.142018   1.726662 C.3        1 UNL1     0.2326
     6 O         -1.293074   -2.330489   2.123336 O.3        1 UNL1     -0.3076
     7 O         -3.27752   -1.020045   2.373297 O.3        1 UNL1     -0.4605
     8 C         -3.827109   -1.267616   3.618363 C.ar        1 UNL1     0.1310
     9 C         -4.628128   -2.366687   3.946554 C.ar        1 UNL1     0.0226
     10 C         -5.124777   -2.538515   5.244136 C.ar        1 UNL1     0.1343
     11 C         -4.812467   -1.627059   6.251881 C.ar        1 UNL1     0.1007
     12 C         -4.047399   -0.503858   5.926498 C.ar        1 UNL1     0.1389
     13 C         -3.550335   -0.329925   4.621084 C.ar        1 UNL1     0.0229
     14 C         -5.240622   -1.804094   7.658827 C.2        1 UNL1     0.1740
     15 C         -4.631692   -0.853496   8.647319 C.3        1 UNL1     0.0520
     16 C         -4.574544   0.529568   8.013421 C.3        1 UNL1     0.1322
     17 O         -3.770661   0.51074   6.813218 O.3        1 UNL1     -0.4828
     18 C         -5.945998   1.188731   7.848065 C.ar        1 UNL1     -0.0067
     19 C         -6.29458   1.760254   6.607071 C.ar        1 UNL1     -0.0516
     20 C         -7.521518   2.412386   6.435871 C.ar        1 UNL1     -0.0198
     21 C         -8.403434   2.505932   7.497616 C.ar        1 UNL1     0.1169
     22 C         -8.102819   1.923993   8.722286 C.ar        1 UNL1     -0.0198
     23 C         -6.883834   1.255767   8.888432 C.ar        1 UNL1     -0.0516
     24 O         -9.572526   3.181376   7.304229 O.3        1 UNL1     -0.5068
     25 O         -5.98057   -2.710826   8.031382 O.2        1 UNL1     -0.2917
     26 O         -5.901187   -3.631232   5.498582 O.3        1 UNL1     -0.5058
     27 O         -0.314087   -0.23441   2.529097 O.3        1 UNL1     -0.3648
     28 O         0.339349   -1.937526   -0.584517 O.3        1 UNL1     -0.3841
     29 O         -2.457862   0.291802   -0.346713 O.3        1 UNL1     -0.3863
     30 O         -2.34576   -3.380724   -0.336927 O.3        1 UNL1     -0.3829
     31 H         0.609682   -1.852005   1.81634 H        1 UNL1     0.0937
     32 H         0.0   0.0   0.0 H        1 UNL1     0.0671
     33 H         -1.781744   -1.228085   -1.494122 H        1 UNL1     0.0649
     34 H         -3.790225   -1.941919   -0.101771 H        1 UNL1     0.0683
     35 H         -3.191514   -3.05628   1.99918 H        1 UNL1     0.1085
     36 H         -4.860439   -3.139545   3.222094 H        1 UNL1     0.0691
     37 H         -2.957988   0.553626   4.393145 H        1 UNL1     0.0691
     38 H         -3.627633   -1.220889   8.884837 H        1 UNL1     0.0385
     39 H         -5.225937   -0.863026   9.567406 H        1 UNL1     0.0385
     40 H         -4.02106   1.179731   8.704408 H        1 UNL1     0.0789
     41 H         -5.61577   1.708239   5.760808 H        1 UNL1     0.0623
     42 H         -7.773697   2.85943   5.477451 H        1 UNL1     0.0654
     43 H         -8.792642   1.978276   9.556018 H        1 UNL1     0.0654
     44 H         -6.686335   0.803685   9.855625 H        1 UNL1     0.0623
     45 H         -9.361011   4.098254   7.064824 H        1 UNL1     0.2921
     46 H         -5.51036   -4.144049   6.223623 H        1 UNL1     0.2922
     47 H         0.423847   0.342253   2.286665 H        1 UNL1     0.2126
     48 H         1.259377   -1.852205   -0.268288 H        1 UNL1     0.2101
     49 H         -2.01128   0.894828   -0.962113 H        1 UNL1     0.2100
     50 H         -2.543738   -3.38727   -1.296341 H        1 UNL1     0.2102
@<TRIPOS>BOND
     1     1     2    1
     2     1     6    1
     3     2     3    1
     4     3     4    1
     5     3    29    1
     6     3    33    1
     7     4     5    1
     8     5     6    1
     9     5     7    1
    10     5    35    1
    11     7     8    1
    12     8     9   ar
    13     8    13   ar
    14     9    10   ar
    15     9    36    1
    16    10    11   ar
    17    10    26    1
    18    11    12   ar
    19    11    14    1
    20    12    13   ar
    21    12    17    1
    22    13    37    1
    23    14    15    1
    24    14    25    2
    25    15    16    1
    26    15    38    1
    27    15    39    1
    28    16    17    1
    29    16    18    1
    30    16    40    1
    31    18    19   ar
    32    18    23   ar
    33    19    20   ar
    34    19    41    1
    35    20    21   ar
    36    20    42    1
    37    21    22   ar
    38    21    24    1
    39    22    23   ar
    40    22    43    1
    41    23    44    1
    42    24    45    1
    43    26    46    1
    44    27    47    1
    45    28    48    1
    46    29    49    1
    47    30    50    1
    48     1    31    1
    49     1    27    1
    50     2    32    1
    51     2    28    1
    52     4    34    1
    53     4    30    1
