@<TRIPOS>MOLECULE
*****
 50 53 0 0 0
SMALL
GASTEIGER

@<TRIPOS>ATOM
     1 C         0.898623   -1.774969   -0.901536 C.3        1 UNL1     0.1889
     2 C         -0.268392   -0.764051   -0.740104 C.3        1 UNL1     0.1342
     3 C         -1.612643   -1.394278   -0.344795 C.3        1 UNL1     0.1174
     4 C         -1.824124   -2.778242   -0.963695 C.3        1 UNL1     0.1456
     5 C         -0.587227   -3.68384   -0.821066 C.3        1 UNL1     0.2326
     6 O         0.547491   -3.053216   -1.410639 O.3        1 UNL1     -0.3076
     7 O         -0.352025   -4.124531   0.528672 O.3        1 UNL1     -0.4605
     8 C         0.868814   -4.730762   0.764392 C.ar        1 UNL1     0.1310
     9 C         1.053374   -6.073933   1.109544 C.ar        1 UNL1     0.0226
     10 C         2.335013   -6.599742   1.311602 C.ar        1 UNL1     0.1343
     11 C         3.465624   -5.800102   1.149935 C.ar        1 UNL1     0.1007
     12 C         3.292116   -4.4473   0.845621 C.ar        1 UNL1     0.1389
     13 C         2.003208   -3.918212   0.645096 C.ar        1 UNL1     0.0229
     14 C         4.846103   -6.323819   1.268895 C.2        1 UNL1     0.1740
     15 C         5.936039   -5.383346   0.845697 C.3        1 UNL1     0.0520
     16 C         5.583064   -3.985463   1.33487 C.3        1 UNL1     0.1322
     17 O         4.328427   -3.545902   0.769413 O.3        1 UNL1     -0.4828
     18 C         5.687652   -3.819145   2.852804 C.ar        1 UNL1     -0.0067
     19 C         4.657599   -4.317541   3.6767 C.ar        1 UNL1     -0.0516
     20 C         4.69892   -4.140459   5.064827 C.ar        1 UNL1     -0.0198
     21 C         5.758814   -3.461836   5.639215 C.ar        1 UNL1     0.1169
     22 C         6.804764   -2.988678   4.857582 C.ar        1 UNL1     -0.0198
     23 C         6.772824   -3.18177   3.47131 C.ar        1 UNL1     -0.0516
     24 O         5.746015   -3.275588   6.990344 O.3        1 UNL1     -0.5068
     25 O         5.105555   -7.47444   1.611302 O.2        1 UNL1     -0.2917
     26 O         2.446425   -7.917432   1.64756 O.3        1 UNL1     -0.5058
     27 O         1.720988   -1.877672   0.249965 O.3        1 UNL1     -0.3648
     28 O         -0.4646   -0.089459   -1.99674 O.3        1 UNL1     -0.3841
     29 O         -1.775678   -1.392118   1.074905 O.3        1 UNL1     -0.3863
     30 O         -2.129874   -2.627887   -2.367119 O.3        1 UNL1     -0.3829
     31 H         1.562319   -1.366251   -1.6713 H        1 UNL1     0.0937
     32 H         0.0   0.0   0.0 H        1 UNL1     0.0671
     33 H         -2.41275   -0.74765   -0.731345 H        1 UNL1     0.0649
     34 H         -2.686627   -3.268152   -0.498424 H        1 UNL1     0.0683
     35 H         -0.825437   -4.556666   -1.441798 H        1 UNL1     0.1085
     36 H         0.218308   -6.760516   1.195508 H        1 UNL1     0.0691
     37 H         1.895   -2.861537   0.4101 H        1 UNL1     0.0691
     38 H         5.995655   -5.415927   -0.247423 H        1 UNL1     0.0385
     39 H         6.890965   -5.734993   1.250963 H        1 UNL1     0.0385
     40 H         6.329415   -3.29754   0.915057 H        1 UNL1     0.0789
     41 H         3.810274   -4.845723   3.249249 H        1 UNL1     0.0623
     42 H         3.892654   -4.519019   5.688237 H        1 UNL1     0.0654
     43 H         7.647009   -2.469043   5.298619 H        1 UNL1     0.0654
     44 H         7.612002   -2.808221   2.892442 H        1 UNL1     0.0623
     45 H         6.613386   -3.531854   7.343491 H        1 UNL1     0.2921
     46 H         2.421241   -8.459599   0.843302 H        1 UNL1     0.2922
     47 H         2.557792   -2.308543   0.02643 H        1 UNL1     0.2126
     48 H         -0.62413   0.850998   -1.787403 H        1 UNL1     0.2101
     49 H         -1.108777   -1.965907   1.484544 H        1 UNL1     0.2100
     50 H         -2.106557   -1.671943   -2.580049 H        1 UNL1     0.2102
@<TRIPOS>BOND
     1     1     2    1
     2     1     6    1
     3     2     3    1
     4     3     4    1
     5     3    29    1
     6     3    33    1
     7     4     5    1
     8     5     6    1
     9     5     7    1
    10     5    35    1
    11     7     8    1
    12     8     9   ar
    13     8    13   ar
    14     9    10   ar
    15     9    36    1
    16    10    11   ar
    17    10    26    1
    18    11    12   ar
    19    11    14    1
    20    12    13   ar
    21    12    17    1
    22    13    37    1
    23    14    15    1
    24    14    25    2
    25    15    16    1
    26    15    38    1
    27    15    39    1
    28    16    17    1
    29    16    18    1
    30    16    40    1
    31    18    19   ar
    32    18    23   ar
    33    19    20   ar
    34    19    41    1
    35    20    21   ar
    36    20    42    1
    37    21    22   ar
    38    21    24    1
    39    22    23   ar
    40    22    43    1
    41    23    44    1
    42    24    45    1
    43    26    46    1
    44    27    47    1
    45    28    48    1
    46    29    49    1
    47    30    50    1
    48     1    31    1
    49     1    27    1
    50     2    32    1
    51     2    28    1
    52     4    34    1
    53     4    30    1
