@<TRIPOS>MOLECULE
*****
 50 53 0 0 0
SMALL
GASTEIGER

@<TRIPOS>ATOM
     1 C         -1.803639   -0.490445   1.130113 C.3        1 UNL1     0.1889
     2 C         -0.40716   0.175697   1.00345 C.3        1 UNL1     0.1342
     3 C         0.620217   -0.284912   2.048821 C.3        1 UNL1     0.1174
     4 C         -0.011455   -0.581393   3.411248 C.3        1 UNL1     0.1456
     5 C         -1.286641   -1.43651   3.297067 C.3        1 UNL1     0.2326
     6 O         -2.232874   -0.787571   2.450669 O.3        1 UNL1     -0.3076
     7 O         -1.029875   -2.800743   2.917253 O.3        1 UNL1     -0.4605
     8 C         -1.840949   -3.756014   3.503038 C.ar        1 UNL1     0.1310
     9 C         -2.682252   -3.542323   4.600237 C.ar        1 UNL1     0.0226
     10 C         -3.480343   -4.572518   5.111757 C.ar        1 UNL1     0.1343
     11 C         -3.47425   -5.836301   4.522981 C.ar        1 UNL1     0.1007
     12 C         -2.607751   -6.073082   3.452515 C.ar        1 UNL1     0.1389
     13 C         -1.803415   -5.037786   2.940035 C.ar        1 UNL1     0.0229
     14 C         -4.358941   -6.93714   4.969781 C.2        1 UNL1     0.1740
     15 C         -4.382371   -8.150264   4.086984 C.3        1 UNL1     0.0520
     16 C         -2.962563   -8.4288   3.613148 C.3        1 UNL1     0.1322
     17 O         -2.441557   -7.306743   2.867085 O.3        1 UNL1     -0.4828
     18 C         -2.03451   -8.942925   4.716379 C.ar        1 UNL1     -0.0067
     19 C         -1.227996   -8.028659   5.424805 C.ar        1 UNL1     -0.0516
     20 C         -0.333718   -8.470787   6.407023 C.ar        1 UNL1     -0.0198
     21 C         -0.231521   -9.822262   6.684327 C.ar        1 UNL1     0.1169
     22 C         -1.036466   -10.743658   6.027112 C.ar        1 UNL1     -0.0198
     23 C         -1.944069   -10.299985   5.057851 C.ar        1 UNL1     -0.0516
     24 O         0.677538   -10.219146   7.620541 O.3        1 UNL1     -0.5068
     25 O         -5.095806   -6.857228   5.949132 O.2        1 UNL1     -0.2917
     26 O         -4.278011   -4.299025   6.184376 O.3        1 UNL1     -0.5058
     27 O         -1.983604   -1.596194   0.259643 O.3        1 UNL1     -0.3648
     28 O         -0.565015   1.598559   1.155939 O.3        1 UNL1     -0.3841
     29 O         1.397157   -1.375584   1.549892 O.3        1 UNL1     -0.3863
     30 O         -0.345028   0.664982   4.060069 O.3        1 UNL1     -0.3829
     31 H         -2.534966   0.247697   0.783146 H        1 UNL1     0.0937
     32 H         0.0   0.0   0.0 H        1 UNL1     0.0671
     33 H         1.334417   0.536247   2.201586 H        1 UNL1     0.0649
     34 H         0.711575   -1.094421   4.055011 H        1 UNL1     0.0683
     35 H         -1.704968   -1.42437   4.311333 H        1 UNL1     0.1085
     36 H         -2.774003   -2.567808   5.067166 H        1 UNL1     0.0691
     37 H         -1.136511   -5.24818   2.106689 H        1 UNL1     0.0691
     38 H         -5.045002   -7.932605   3.242549 H        1 UNL1     0.0385
     39 H         -4.805221   -8.992398   4.645363 H        1 UNL1     0.0385
     40 H         -3.020364   -9.243671   2.878871 H        1 UNL1     0.0789
     41 H         -1.282941   -6.96358   5.219288 H        1 UNL1     0.0623
     42 H         0.29136   -7.757116   6.938025 H        1 UNL1     0.0654
     43 H         -0.975333   -11.802795   6.247115 H        1 UNL1     0.0654
     44 H         -2.564812   -11.046369   4.571607 H        1 UNL1     0.0623
     45 H         1.339534   -9.516242   7.722541 H        1 UNL1     0.2921
     46 H         -4.029121   -3.440672   6.562128 H        1 UNL1     0.2922
     47 H         -1.761944   -1.346985   -0.648444 H        1 UNL1     0.2126
     48 H         -0.991864   1.921733   0.339182 H        1 UNL1     0.2101
     49 H         1.575373   -2.007812   2.26426 H        1 UNL1     0.2100
     50 H         0.492048   1.124602   4.278622 H        1 UNL1     0.2102
@<TRIPOS>BOND
     1     1     2    1
     2     1     6    1
     3     2     3    1
     4     3     4    1
     5     3    29    1
     6     3    33    1
     7     4     5    1
     8     5     6    1
     9     5     7    1
    10     5    35    1
    11     7     8    1
    12     8     9   ar
    13     8    13   ar
    14     9    10   ar
    15     9    36    1
    16    10    11   ar
    17    10    26    1
    18    11    12   ar
    19    11    14    1
    20    12    13   ar
    21    12    17    1
    22    13    37    1
    23    14    15    1
    24    14    25    2
    25    15    16    1
    26    15    38    1
    27    15    39    1
    28    16    17    1
    29    16    18    1
    30    16    40    1
    31    18    19   ar
    32    18    23   ar
    33    19    20   ar
    34    19    41    1
    35    20    21   ar
    36    20    42    1
    37    21    22   ar
    38    21    24    1
    39    22    23   ar
    40    22    43    1
    41    23    44    1
    42    24    45    1
    43    26    46    1
    44    27    47    1
    45    28    48    1
    46    29    49    1
    47    30    50    1
    48     1    31    1
    49     1    27    1
    50     2    32    1
    51     2    28    1
    52     4    34    1
    53     4    30    1
