@<TRIPOS>MOLECULE
*****
 50 53 0 0 0
SMALL
GASTEIGER

@<TRIPOS>ATOM
     1 C         1.840024   1.147811   0.260087 C.3        1 UNL1     0.1889
     2 C         0.954412   0.141057   -0.522267 C.3        1 UNL1     0.1342
     3 C         1.602148   -1.231352   -0.761844 C.3        1 UNL1     0.1174
     4 C         3.113809   -1.143179   -0.985951 C.3        1 UNL1     0.1456
     5 C         3.811845   -0.239415   0.046677 C.3        1 UNL1     0.2326
     6 O         3.236857   1.064985   0.018438 O.3        1 UNL1     -0.3076
     7 O         3.858845   -0.808613   1.367709 O.3        1 UNL1     -0.4605
     8 C         4.972323   -0.491978   2.124965 C.ar        1 UNL1     0.1310
     9 C         6.260526   -0.279589   1.622248 C.ar        1 UNL1     0.0226
     10 C         7.322632   0.0545   2.470904 C.ar        1 UNL1     0.1343
     11 C         7.117068   0.207802   3.841336 C.ar        1 UNL1     0.1007
     12 C         5.843874   -0.041872   4.360395 C.ar        1 UNL1     0.1389
     13 C         4.776674   -0.380372   3.507204 C.ar        1 UNL1     0.0229
     14 C         8.1846   0.641305   4.772252 C.2        1 UNL1     0.1740
     15 C         7.736652   0.969484   6.166235 C.3        1 UNL1     0.0520
     16 C         6.694568   -0.055837   6.591364 C.3        1 UNL1     0.1322
     17 O         5.554137   -0.025686   5.705036 O.3        1 UNL1     -0.4828
     18 C         7.269448   -1.452743   6.838123 C.ar        1 UNL1     -0.0067
     19 C         8.223031   -1.638604   7.860057 C.ar        1 UNL1     -0.0516
     20 C         8.803782   -2.893128   8.081101 C.ar        1 UNL1     -0.0198
     21 C         8.445629   -3.965626   7.284043 C.ar        1 UNL1     0.1169
     22 C         7.484813   -3.821642   6.291601 C.ar        1 UNL1     -0.0198
     23 C         6.890343   -2.571482   6.082412 C.ar        1 UNL1     -0.0516
     24 O         9.060179   -5.163241   7.504149 O.3        1 UNL1     -0.5068
     25 O         9.352762   0.807296   4.431182 O.2        1 UNL1     -0.2917
     26 O         8.554799   0.24732   1.917577 O.3        1 UNL1     -0.5058
     27 O         1.550559   1.195533   1.64815 O.3        1 UNL1     -0.3648
     28 O         0.654562   0.70438   -1.812794 O.3        1 UNL1     -0.3841
     29 O         1.249149   -2.146936   0.277016 O.3        1 UNL1     -0.3863
     30 O         3.366999   -0.61914   -2.30768 O.3        1 UNL1     -0.3829
     31 H         1.575777   2.146308   -0.104955 H        1 UNL1     0.0937
     32 H         0.0   -0.0   0.0 H        1 UNL1     0.0671
     33 H         1.168644   -1.651019   -1.680361 H        1 UNL1     0.0649
     34 H         3.556555   -2.144644   -0.94796 H        1 UNL1     0.0683
     35 H         4.83638   -0.144678   -0.334417 H        1 UNL1     0.1085
     36 H         6.473366   -0.328786   0.559987 H        1 UNL1     0.0691
     37 H         3.7953   -0.570796   3.936314 H        1 UNL1     0.0691
     38 H         7.313006   1.97931   6.148851 H        1 UNL1     0.0385
     39 H         8.607186   0.975164   6.831003 H        1 UNL1     0.0385
     40 H         6.296711   0.270266   7.561873 H        1 UNL1     0.0789
     41 H         8.527749   -0.810519   8.493359 H        1 UNL1     0.0623
     42 H         9.546711   -3.020982   8.864505 H        1 UNL1     0.0654
     43 H         7.185931   -4.658355   5.671526 H        1 UNL1     0.0654
     44 H         6.13567   -2.497612   5.30533 H        1 UNL1     0.0623
     45 H         9.653074   -5.345573   6.75719 H        1 UNL1     0.2921
     46 H         8.620351   1.155444   1.582278 H        1 UNL1     0.2922
     47 H         1.401606   0.302885   1.989987 H        1 UNL1     0.2126
     48 H         1.137684   1.551344   -1.867358 H        1 UNL1     0.2101
     49 H         1.993134   -2.251949   0.891224 H        1 UNL1     0.2100
     50 H         2.741435   -1.048679   -2.927259 H        1 UNL1     0.2102
@<TRIPOS>BOND
     1     1     2    1
     2     1     6    1
     3     2     3    1
     4     3     4    1
     5     3    29    1
     6     3    33    1
     7     4     5    1
     8     5     6    1
     9     5     7    1
    10     5    35    1
    11     7     8    1
    12     8     9   ar
    13     8    13   ar
    14     9    10   ar
    15     9    36    1
    16    10    11   ar
    17    10    26    1
    18    11    12   ar
    19    11    14    1
    20    12    13   ar
    21    12    17    1
    22    13    37    1
    23    14    15    1
    24    14    25    2
    25    15    16    1
    26    15    38    1
    27    15    39    1
    28    16    17    1
    29    16    18    1
    30    16    40    1
    31    18    19   ar
    32    18    23   ar
    33    19    20   ar
    34    19    41    1
    35    20    21   ar
    36    20    42    1
    37    21    22   ar
    38    21    24    1
    39    22    23   ar
    40    22    43    1
    41    23    44    1
    42    24    45    1
    43    26    46    1
    44    27    47    1
    45    28    48    1
    46    29    49    1
    47    30    50    1
    48     1    31    1
    49     1    27    1
    50     2    32    1
    51     2    28    1
    52     4    34    1
    53     4    30    1
