@<TRIPOS>MOLECULE
*****
 50 53 0 0 0
SMALL
GASTEIGER

@<TRIPOS>ATOM
     1 C         -0.330314   -1.327194   1.703013 C.3        1 UNL1     0.1889
     2 C         -0.461645   -0.975585   0.196672 C.3        1 UNL1     0.1342
     3 C         -1.9027   -0.964558   -0.335967 C.3        1 UNL1     0.1174
     4 C         -2.787945   -2.023949   0.325206 C.3        1 UNL1     0.1456
     5 C         -2.635704   -2.047929   1.857071 C.3        1 UNL1     0.2326
     6 O         -1.270506   -2.264698   2.20652 O.3        1 UNL1     -0.3076
     7 O         -3.211232   -0.900784   2.508336 O.3        1 UNL1     -0.4605
     8 C         -3.720093   -1.115548   3.776588 C.ar        1 UNL1     0.1310
     9 C         -4.535316   -2.188901   4.151589 C.ar        1 UNL1     0.0226
     10 C         -4.987462   -2.328505   5.469154 C.ar        1 UNL1     0.1343
     11 C         -4.615419   -1.410159   6.450003 C.ar        1 UNL1     0.1007
     12 C         -3.83541   -0.311734   6.078745 C.ar        1 UNL1     0.1389
     13 C         -3.383087   -0.170154   4.753305 C.ar        1 UNL1     0.0229
     14 C         -4.995201   -1.555053   7.874407 C.2        1 UNL1     0.1740
     15 C         -4.326581   -0.605386   8.824475 C.3        1 UNL1     0.0520
     16 C         -4.258826   0.766069   8.166845 C.3        1 UNL1     0.1322
     17 O         -3.50085   0.708785   6.938325 O.3        1 UNL1     -0.4828
     18 C         -5.618742   1.457193   8.041543 C.ar        1 UNL1     -0.0067
     19 C         -5.998982   2.018583   6.805229 C.ar        1 UNL1     -0.0516
     20 C         -7.214918   2.698931   6.668884 C.ar        1 UNL1     -0.0198
     21 C         -8.054147   2.83079   7.760733 C.ar        1 UNL1     0.1169
     22 C         -7.722692   2.259958   8.982668 C.ar        1 UNL1     -0.0198
     23 C         -6.515287   1.563647   9.114515 C.ar        1 UNL1     -0.0516
     24 O         -9.212543   3.53264   7.599715 O.3        1 UNL1     -0.5068
     25 O         -5.743002   -2.437028   8.288409 O.2        1 UNL1     -0.2917
     26 O         -5.780686   -3.397241   5.769461 O.3        1 UNL1     -0.5058
     27 O         -0.225514   -0.188211   2.542372 O.3        1 UNL1     -0.3648
     28 O         0.269304   -1.954095   -0.56552 O.3        1 UNL1     -0.3841
     29 O         -2.461079   0.34871   -0.260648 O.3        1 UNL1     -0.3863
     30 O         -2.439645   -3.324912   -0.196207 O.3        1 UNL1     -0.3829
     31 H         0.630777   -1.839253   1.822085 H        1 UNL1     0.0937
     32 H         0.0   0.0   0.0 H        1 UNL1     0.0671
     33 H         -1.865939   -1.204948   -1.407686 H        1 UNL1     0.0649
     34 H         -3.838301   -1.846595   0.068888 H        1 UNL1     0.0683
     35 H         -3.189637   -2.943955   2.163951 H        1 UNL1     0.1085
     36 H         -4.813473   -2.966463   3.448633 H        1 UNL1     0.0691
     37 H         -2.777936   0.69457   4.489607 H        1 UNL1     0.0691
     38 H         -3.323786   -0.994474   9.03073 H        1 UNL1     0.0385
     39 H         -4.886248   -0.585983   9.765843 H        1 UNL1     0.0385
     40 H         -3.664099   1.412348   8.826498 H        1 UNL1     0.0789
     41 H         -5.353612   1.936633   5.935498 H        1 UNL1     0.0623
     42 H         -7.491423   3.137716   5.713361 H        1 UNL1     0.0654
     43 H         -8.379473   2.344265   9.840247 H        1 UNL1     0.0654
     44 H         -6.293206   1.121345   10.080897 H        1 UNL1     0.0623
     45 H         -8.987466   4.439959   7.337362 H        1 UNL1     0.2921
     46 H         -5.375461   -3.909385   6.487036 H        1 UNL1     0.2922
     47 H         0.517049   0.365763   2.263851 H        1 UNL1     0.2126
     48 H         1.202167   -1.887838   -0.284259 H        1 UNL1     0.2101
     49 H         -2.022842   0.930902   -0.901581 H        1 UNL1     0.2100
     50 H         -2.67327   -3.340909   -1.147457 H        1 UNL1     0.2102
@<TRIPOS>BOND
     1     1     2    1
     2     1     6    1
     3     2     3    1
     4     3     4    1
     5     3    29    1
     6     3    33    1
     7     4     5    1
     8     5     6    1
     9     5     7    1
    10     5    35    1
    11     7     8    1
    12     8     9   ar
    13     8    13   ar
    14     9    10   ar
    15     9    36    1
    16    10    11   ar
    17    10    26    1
    18    11    12   ar
    19    11    14    1
    20    12    13   ar
    21    12    17    1
    22    13    37    1
    23    14    15    1
    24    14    25    2
    25    15    16    1
    26    15    38    1
    27    15    39    1
    28    16    17    1
    29    16    18    1
    30    16    40    1
    31    18    19   ar
    32    18    23   ar
    33    19    20   ar
    34    19    41    1
    35    20    21   ar
    36    20    42    1
    37    21    22   ar
    38    21    24    1
    39    22    23   ar
    40    22    43    1
    41    23    44    1
    42    24    45    1
    43    26    46    1
    44    27    47    1
    45    28    48    1
    46    29    49    1
    47    30    50    1
    48     1    31    1
    49     1    27    1
    50     2    32    1
    51     2    28    1
    52     4    34    1
    53     4    30    1
