@<TRIPOS>MOLECULE
*****
 50 53 0 0 0
SMALL
GASTEIGER

@<TRIPOS>ATOM
     1 C         -0.682311   -1.032327   1.799877 C.3        1 UNL1     0.1889
     2 C         -0.547024   -0.915346   0.257816 C.3        1 UNL1     0.1342
     3 C         -1.879877   -0.934568   -0.50612 C.3        1 UNL1     0.1174
     4 C         -2.92421   -1.844632   0.145239 C.3        1 UNL1     0.1456
     5 C         -3.022658   -1.635005   1.66732 C.3        1 UNL1     0.2326
     6 O         -1.747778   -1.844648   2.270312 O.3        1 UNL1     -0.3076
     7 O         -3.623228   -0.379965   2.035439 O.3        1 UNL1     -0.4605
     8 C         -4.342205   -0.375474   3.217209 C.ar        1 UNL1     0.1310
     9 C         -5.27231   -1.346521   3.603568 C.ar        1 UNL1     0.0226
     10 C         -5.938703   -1.262233   4.831867 C.ar        1 UNL1     0.1343
     11 C         -5.673287   -0.216461   5.714905 C.ar        1 UNL1     0.1007
     12 C         -4.776912   0.781212   5.322547 C.ar        1 UNL1     0.1389
     13 C         -4.108954   0.69764   4.086312 C.ar        1 UNL1     0.0229
     14 C         -6.285952   -0.123393   7.060317 C.2        1 UNL1     0.1740
     15 C         -5.721511   0.937595   7.958792 C.3        1 UNL1     0.0520
     16 C         -5.46356   2.186287   7.126814 C.3        1 UNL1     0.1322
     17 O         -4.522521   1.910303   6.065989 O.3        1 UNL1     -0.4828
     18 C         -6.739891   2.898918   6.673098 C.ar        1 UNL1     -0.0067
     19 C         -6.88026   3.274228   5.321191 C.ar        1 UNL1     -0.0516
     20 C         -8.013665   3.969209   4.882606 C.ar        1 UNL1     -0.0198
     21 C         -9.008073   4.300477   5.785513 C.ar        1 UNL1     0.1169
     22 C         -8.914024   3.915398   7.116568 C.ar        1 UNL1     -0.0198
     23 C         -7.789289   3.204273   7.551686 C.ar        1 UNL1     -0.0516
     24 O         -10.07949   5.01072   5.329421 O.3        1 UNL1     -0.5068
     25 O         -7.144044   -0.90193   7.467801 O.2        1 UNL1     -0.2917
     26 O         -6.834813   -2.24118   5.148466 O.3        1 UNL1     -0.5058
     27 O         -0.643606   0.218987   2.467336 O.3        1 UNL1     -0.3648
     28 O         0.234988   -2.02694   -0.217076 O.3        1 UNL1     -0.3841
     29 O         -2.360401   0.394   -0.720914 O.3        1 UNL1     -0.3863
     30 O         -2.57794   -3.222902   -0.111974 O.3        1 UNL1     -0.3829
     31 H         0.213322   -1.554522   2.15376 H        1 UNL1     0.0937
     32 H         0.0   0.0   -0.0 H        1 UNL1     0.0671
     33 H         -1.685862   -1.340336   -1.508832 H        1 UNL1     0.0649
     34 H         -3.906441   -1.670942   -0.308031 H        1 UNL1     0.0683
     35 H         -3.673403   -2.451241   2.005209 H        1 UNL1     0.1085
     36 H         -5.481295   -2.21344   2.9864 H        1 UNL1     0.0691
     37 H         -3.416666   1.487831   3.803772 H        1 UNL1     0.0691
     38 H         -4.791213   0.548848   8.386517 H        1 UNL1     0.0385
     39 H         -6.423291   1.12412   8.778848 H        1 UNL1     0.0385
     40 H         -4.943941   2.905234   7.774605 H        1 UNL1     0.0789
     41 H         -6.109497   3.033987   4.594651 H        1 UNL1     0.0623
     42 H         -8.104735   4.263474   3.839952 H        1 UNL1     0.0654
     43 H         -9.693921   4.15649   7.828991 H        1 UNL1     0.0654
     44 H         -7.753793   2.910229   8.596255 H        1 UNL1     0.0623
     45 H         -9.75921   5.857427   4.978387 H        1 UNL1     0.2921
     46 H         -6.583555   -2.649224   5.992137 H        1 UNL1     0.2922
     47 H         0.167108   0.695081   2.239438 H        1 UNL1     0.2126
     48 H         1.11261   -1.951958   0.204694 H        1 UNL1     0.2101
     49 H         -1.78932   0.852585   -1.357593 H        1 UNL1     0.2100
     50 H         -2.65572   -3.378452   -1.076063 H        1 UNL1     0.2102
@<TRIPOS>BOND
     1     1     2    1
     2     1     6    1
     3     2     3    1
     4     3     4    1
     5     3    29    1
     6     3    33    1
     7     4     5    1
     8     5     6    1
     9     5     7    1
    10     5    35    1
    11     7     8    1
    12     8     9   ar
    13     8    13   ar
    14     9    10   ar
    15     9    36    1
    16    10    11   ar
    17    10    26    1
    18    11    12   ar
    19    11    14    1
    20    12    13   ar
    21    12    17    1
    22    13    37    1
    23    14    15    1
    24    14    25    2
    25    15    16    1
    26    15    38    1
    27    15    39    1
    28    16    17    1
    29    16    18    1
    30    16    40    1
    31    18    19   ar
    32    18    23   ar
    33    19    20   ar
    34    19    41    1
    35    20    21   ar
    36    20    42    1
    37    21    22   ar
    38    21    24    1
    39    22    23   ar
    40    22    43    1
    41    23    44    1
    42    24    45    1
    43    26    46    1
    44    27    47    1
    45    28    48    1
    46    29    49    1
    47    30    50    1
    48     1    31    1
    49     1    27    1
    50     2    32    1
    51     2    28    1
    52     4    34    1
    53     4    30    1
