@<TRIPOS>MOLECULE
*****
 50 53 0 0 0
SMALL
GASTEIGER

@<TRIPOS>ATOM
     1 C         -2.057185   -0.697088   0.229921 C.3        1 UNL1     0.1889
     2 C         -0.710651   -0.191075   0.81365 C.3        1 UNL1     0.1342
     3 C         -0.059769   -1.135269   1.836057 C.3        1 UNL1     0.1174
     4 C         -1.085872   -1.874361   2.698596 C.3        1 UNL1     0.1456
     5 C         -2.235816   -2.471038   1.86675 C.3        1 UNL1     0.2326
     6 O         -2.878134   -1.442264   1.117136 O.3        1 UNL1     -0.3076
     7 O         -1.836908   -3.594089   1.059935 O.3        1 UNL1     -0.4605
     8 C         -2.590383   -3.821316   -0.077681 C.ar        1 UNL1     0.1310
     9 C         -2.215885   -4.641809   -1.147186 C.ar        1 UNL1     0.0226
     10 C         -3.058369   -4.822037   -2.250654 C.ar        1 UNL1     0.1343
     11 C         -4.307295   -4.20435   -2.300528 C.ar        1 UNL1     0.1007
     12 C         -4.674953   -3.350152   -1.257477 C.ar        1 UNL1     0.1389
     13 C         -3.826538   -3.167011   -0.149288 C.ar        1 UNL1     0.0229
     14 C         -5.272015   -4.426233   -3.402453 C.2        1 UNL1     0.1740
     15 C         -6.646086   -3.863721   -3.185529 C.3        1 UNL1     0.0520
     16 C         -6.509119   -2.498038   -2.526663 C.3        1 UNL1     0.1322
     17 O         -5.833073   -2.607848   -1.254667 O.3        1 UNL1     -0.4828
     18 C         -5.943643   -1.420146   -3.454624 C.ar        1 UNL1     -0.0067
     19 C         -6.77407   -0.851058   -4.441915 C.ar        1 UNL1     -0.0516
     20 C         -6.275525   0.102588   -5.337446 C.ar        1 UNL1     -0.0198
     21 C         -4.949445   0.489219   -5.260923 C.ar        1 UNL1     0.1169
     22 C         -4.115644   -0.02846   -4.278262 C.ar        1 UNL1     -0.0198
     23 C         -4.618746   -0.968453   -3.370871 C.ar        1 UNL1     -0.0516
     24 O         -4.489703   1.392183   -6.173992 O.3        1 UNL1     -0.5068
     25 O         -5.015136   -5.091842   -4.402185 O.2        1 UNL1     -0.2917
     26 O         -2.633458   -5.634334   -3.261203 O.3        1 UNL1     -0.5058
     27 O         -1.921759   -1.343322   -1.025797 O.3        1 UNL1     -0.3648
     28 O         -0.944724   1.064359   1.478331 O.3        1 UNL1     -0.3841
     29 O         0.863047   -2.018266   1.195072 O.3        1 UNL1     -0.3863
     30 O         -1.640498   -0.95658   3.665942 O.3        1 UNL1     -0.3829
     31 H         -2.657709   0.192796   0.011848 H        1 UNL1     0.0937
     32 H         0.0   0.0   0.0 H        1 UNL1     0.0671
     33 H         0.547298   -0.523811   2.518192 H        1 UNL1     0.0649
     34 H         -0.593683   -2.674948   3.26181 H        1 UNL1     0.0683
     35 H         -2.956381   -2.814414   2.619583 H        1 UNL1     0.1085
     36 H         -1.282333   -5.193698   -1.142805 H        1 UNL1     0.0691
     37 H         -4.135508   -2.495874   0.649214 H        1 UNL1     0.0691
     38 H         -7.19119   -4.560731   -2.540111 H        1 UNL1     0.0385
     39 H         -7.167489   -3.809034   -4.147261 H        1 UNL1     0.0385
     40 H         -7.522097   -2.159002   -2.270829 H        1 UNL1     0.0789
     41 H         -7.816186   -1.144564   -4.528504 H        1 UNL1     0.0623
     42 H         -6.92277   0.525267   -6.101925 H        1 UNL1     0.0654
     43 H         -3.07953   0.278501   -4.199822 H        1 UNL1     0.0654
     44 H         -3.942006   -1.344089   -2.609447 H        1 UNL1     0.0623
     45 H         -4.53447   2.277904   -5.778757 H        1 UNL1     0.2921
     46 H         -3.341315   -5.73134   -3.917663 H        1 UNL1     0.2922
     47 H         -1.699352   -0.698593   -1.711887 H        1 UNL1     0.2126
     48 H         -0.105104   1.312604   1.910933 H        1 UNL1     0.2101
     49 H         0.379533   -2.711856   0.718689 H        1 UNL1     0.2100
     50 H         -0.919028   -0.368807   3.972071 H        1 UNL1     0.2102
@<TRIPOS>BOND
     1     1     2    1
     2     1     6    1
     3     2     3    1
     4     3     4    1
     5     3    29    1
     6     3    33    1
     7     4     5    1
     8     5     6    1
     9     5     7    1
    10     5    35    1
    11     7     8    1
    12     8     9   ar
    13     8    13   ar
    14     9    10   ar
    15     9    36    1
    16    10    11   ar
    17    10    26    1
    18    11    12   ar
    19    11    14    1
    20    12    13   ar
    21    12    17    1
    22    13    37    1
    23    14    15    1
    24    14    25    2
    25    15    16    1
    26    15    38    1
    27    15    39    1
    28    16    17    1
    29    16    18    1
    30    16    40    1
    31    18    19   ar
    32    18    23   ar
    33    19    20   ar
    34    19    41    1
    35    20    21   ar
    36    20    42    1
    37    21    22   ar
    38    21    24    1
    39    22    23   ar
    40    22    43    1
    41    23    44    1
    42    24    45    1
    43    26    46    1
    44    27    47    1
    45    28    48    1
    46    29    49    1
    47    30    50    1
    48     1    31    1
    49     1    27    1
    50     2    32    1
    51     2    28    1
    52     4    34    1
    53     4    30    1
