@<TRIPOS>MOLECULE
*****
 50 53 0 0 0
SMALL
GASTEIGER

@<TRIPOS>ATOM
     1 C         -0.336204   -1.331643   1.698381 C.3        1 UNL1     0.1889
     2 C         -0.464717   -0.974856   0.193015 C.3        1 UNL1     0.1342
     3 C         -1.905099   -0.957932   -0.341289 C.3        1 UNL1     0.1174
     4 C         -2.794211   -2.016838   0.315457 C.3        1 UNL1     0.1456
     5 C         -2.643864   -2.046142   1.847416 C.3        1 UNL1     0.2326
     6 O         -1.27972   -2.268001   2.197785 O.3        1 UNL1     -0.3076
     7 O         -3.216825   -0.899404   2.501656 O.3        1 UNL1     -0.4605
     8 C         -3.729943   -1.117243   3.767666 C.ar        1 UNL1     0.1310
     9 C         -4.550233   -2.188972   4.136209 C.ar        1 UNL1     0.0226
     10 C         -5.006487   -2.332061   5.451983 C.ar        1 UNL1     0.1343
     11 C         -4.633648   -1.419009   6.437462 C.ar        1 UNL1     0.1007
     12 C         -3.848487   -0.32209   6.072666 C.ar        1 UNL1     0.1389
     13 C         -3.392028   -0.176995   4.749026 C.ar        1 UNL1     0.0229
     14 C         -5.017849   -1.568085   7.860247 C.2        1 UNL1     0.1740
     15 C         -4.348234   -0.624715   8.815872 C.3        1 UNL1     0.0520
     16 C         -4.27351   0.749059   8.16386 C.3        1 UNL1     0.1322
     17 O         -3.512415   0.693753   6.937179 O.3        1 UNL1     -0.4828
     18 C         -5.630459   1.445819   8.037615 C.ar        1 UNL1     -0.0067
     19 C         -6.004025   2.015969   6.803276 C.ar        1 UNL1     -0.0516
     20 C         -7.216993   2.7015   6.666462 C.ar        1 UNL1     -0.0198
     21 C         -8.059853   2.829844   7.755931 C.ar        1 UNL1     0.1169
     22 C         -7.73505   2.250514   8.975652 C.ar        1 UNL1     -0.0198
     23 C         -6.530654   1.549078   9.10784 C.ar        1 UNL1     -0.0516
     24 O         -9.215112   3.536817   7.594789 O.3        1 UNL1     -0.5068
     25 O         -5.770101   -2.448848   8.268731 O.2        1 UNL1     -0.2917
     26 O         -5.804556   -3.398961   5.74591 O.3        1 UNL1     -0.5058
     27 O         -0.229087   -0.19565   2.54149 O.3        1 UNL1     -0.3648
     28 O         0.264286   -1.953061   -0.57143 O.3        1 UNL1     -0.3841
     29 O         -2.459741   0.356711   -0.262442 O.3        1 UNL1     -0.3863
     30 O         -2.44908   -3.317144   -0.20969 O.3        1 UNL1     -0.3829
     31 H         0.62325   -1.846879   1.816954 H        1 UNL1     0.0937
     32 H         0.0   0.0   0.0 H        1 UNL1     0.0671
     33 H         -1.867762   -1.195013   -1.413724 H        1 UNL1     0.0649
     34 H         -3.84374   -1.835608   0.058465 H        1 UNL1     0.0683
     35 H         -3.200769   -2.941521   2.150783 H        1 UNL1     0.1085
     36 H         -4.829411   -2.962694   3.429432 H        1 UNL1     0.0691
     37 H         -2.782899   0.686464   4.49039 H        1 UNL1     0.0691
     38 H         -3.347482   -1.01841   9.023299 H        1 UNL1     0.0385
     39 H         -4.910384   -0.606908   9.755792 H        1 UNL1     0.0385
     40 H         -3.678143   1.390472   8.827673 H        1 UNL1     0.0789
     41 H         -5.35568   1.936901   5.935493 H        1 UNL1     0.0623
     42 H         -7.488322   3.146992   5.71256 H        1 UNL1     0.0654
     43 H         -8.394752   2.332052   9.831254 H        1 UNL1     0.0654
     44 H         -6.313801   1.1002   10.072375 H        1 UNL1     0.0623
     45 H         -8.985634   4.446539   7.344865 H        1 UNL1     0.2921
     46 H         -5.404432   -3.914106   6.464198 H        1 UNL1     0.2922
     47 H         0.513622   0.35855   2.263811 H        1 UNL1     0.2126
     48 H         1.199901   -1.878227   -0.301695 H        1 UNL1     0.2101
     49 H         -2.019227   0.939598   -0.901178 H        1 UNL1     0.2100
     50 H         -2.681618   -3.329429   -1.161262 H        1 UNL1     0.2102
@<TRIPOS>BOND
     1     1     2    1
     2     1     6    1
     3     2     3    1
     4     3     4    1
     5     3    29    1
     6     3    33    1
     7     4     5    1
     8     5     6    1
     9     5     7    1
    10     5    35    1
    11     7     8    1
    12     8     9   ar
    13     8    13   ar
    14     9    10   ar
    15     9    36    1
    16    10    11   ar
    17    10    26    1
    18    11    12   ar
    19    11    14    1
    20    12    13   ar
    21    12    17    1
    22    13    37    1
    23    14    15    1
    24    14    25    2
    25    15    16    1
    26    15    38    1
    27    15    39    1
    28    16    17    1
    29    16    18    1
    30    16    40    1
    31    18    19   ar
    32    18    23   ar
    33    19    20   ar
    34    19    41    1
    35    20    21   ar
    36    20    42    1
    37    21    22   ar
    38    21    24    1
    39    22    23   ar
    40    22    43    1
    41    23    44    1
    42    24    45    1
    43    26    46    1
    44    27    47    1
    45    28    48    1
    46    29    49    1
    47    30    50    1
    48     1    31    1
    49     1    27    1
    50     2    32    1
    51     2    28    1
    52     4    34    1
    53     4    30    1
