@<TRIPOS>MOLECULE
*****
 50 53 0 0 0
SMALL
GASTEIGER

@<TRIPOS>ATOM
     1 C         -0.293457   -1.309127   1.723622 C.3        1 UNL1     0.1889
     2 C         -0.441811   -0.98121   0.213522 C.3        1 UNL1     0.1342
     3 C         -1.886469   -1.004667   -0.308854 C.3        1 UNL1     0.1174
     4 C         -2.747001   -2.071082   0.373319 C.3        1 UNL1     0.1456
     5 C         -2.583738   -2.07071   1.904237 C.3        1 UNL1     0.2326
     6 O         -1.212313   -2.256931   2.24685 O.3        1 UNL1     -0.3076
     7 O         -3.176255   -0.925528   2.543613 O.3        1 UNL1     -0.4605
     8 C         -3.672191   -1.131977   3.81835 C.ar        1 UNL1     0.1310
     9 C         -4.464433   -2.215053   4.214078 C.ar        1 UNL1     0.0226
     10 C         -4.90474   -2.344606   5.536669 C.ar        1 UNL1     0.1343
     11 C         -4.543285   -1.405778   6.501963 C.ar        1 UNL1     0.1007
     12 C         -3.786697   -0.298244   6.109883 C.ar        1 UNL1     0.1389
     13 C         -3.346306   -0.166823   4.779389 C.ar        1 UNL1     0.0229
     14 C         -4.910404   -1.537766   7.930934 C.2        1 UNL1     0.1740
     15 C         -4.253235   -0.562499   8.862885 C.3        1 UNL1     0.0520
     16 C         -4.215884   0.800624   8.185789 C.3        1 UNL1     0.1322
     17 O         -3.465483   0.740325   6.952771 O.3        1 UNL1     -0.4828
     18 C         -5.589413   1.464314   8.060666 C.ar        1 UNL1     -0.0067
     19 C         -5.98871   2.001078   6.819433 C.ar        1 UNL1     -0.0516
     20 C         -7.218161   2.656538   6.682382 C.ar        1 UNL1     -0.0198
     21 C         -8.05215   2.787951   7.778293 C.ar        1 UNL1     0.1169
     22 C         -7.70155   2.240631   9.005632 C.ar        1 UNL1     -0.0198
     23 C         -6.480359   1.56899   9.138466 C.ar        1 UNL1     -0.0516
     24 O         -9.22465   3.465639   7.615862 O.3        1 UNL1     -0.5068
     25 O         -5.638573   -2.427705   8.362514 O.2        1 UNL1     -0.2917
     26 O         -5.67559   -3.423703   5.85749 O.3        1 UNL1     -0.5058
     27 O         -0.204328   -0.156716   2.546296 O.3        1 UNL1     -0.3648
     28 O         0.302151   -1.956447   -0.540228 O.3        1 UNL1     -0.3841
     29 O         -2.468957   0.298833   -0.247785 O.3        1 UNL1     -0.3863
     30 O         -2.37787   -3.372477   -0.132451 O.3        1 UNL1     -0.3829
     31 H         0.677912   -1.801363   1.842892 H        1 UNL1     0.0937
     32 H         0.0   0.0   0.0 H        1 UNL1     0.0671
     33 H         -1.852603   -1.259338   -1.377365 H        1 UNL1     0.0649
     34 H         -3.802261   -1.917058   0.122113 H        1 UNL1     0.0683
     35 H         -3.118555   -2.972566   2.227511 H        1 UNL1     0.1085
     36 H         -4.732749   -3.007477   3.524012 H        1 UNL1     0.0691
     37 H         -2.759392   0.705306   4.499358 H        1 UNL1     0.0691
     38 H         -3.241885   -0.929792   9.06732 H        1 UNL1     0.0385
     39 H         -4.80664   -0.540383   9.807889 H        1 UNL1     0.0385
     40 H         -3.628887   1.467127   8.832108 H        1 UNL1     0.0789
     41 H         -5.347944   1.919043   5.946311 H        1 UNL1     0.0623
     42 H         -7.50949   3.076614   5.722864 H        1 UNL1     0.0654
     43 H         -8.353853   2.324638   9.866651 H        1 UNL1     0.0654
     44 H         -6.243301   1.14453   10.109282 H        1 UNL1     0.0623
     45 H         -9.018505   4.373448   7.339992 H        1 UNL1     0.2921
     46 H         -5.256356   -3.917461   6.579887 H        1 UNL1     0.2922
     47 H         0.525612   0.4072   2.25467 H        1 UNL1     0.2126
     48 H         1.235632   -1.868295   -0.267142 H        1 UNL1     0.2101
     49 H         -2.046272   0.880063   -0.899938 H        1 UNL1     0.2100
     50 H         -2.617729   -3.406193   -1.081684 H        1 UNL1     0.2102
@<TRIPOS>BOND
     1     1     2    1
     2     1     6    1
     3     2     3    1
     4     3     4    1
     5     3    29    1
     6     3    33    1
     7     4     5    1
     8     5     6    1
     9     5     7    1
    10     5    35    1
    11     7     8    1
    12     8     9   ar
    13     8    13   ar
    14     9    10   ar
    15     9    36    1
    16    10    11   ar
    17    10    26    1
    18    11    12   ar
    19    11    14    1
    20    12    13   ar
    21    12    17    1
    22    13    37    1
    23    14    15    1
    24    14    25    2
    25    15    16    1
    26    15    38    1
    27    15    39    1
    28    16    17    1
    29    16    18    1
    30    16    40    1
    31    18    19   ar
    32    18    23   ar
    33    19    20   ar
    34    19    41    1
    35    20    21   ar
    36    20    42    1
    37    21    22   ar
    38    21    24    1
    39    22    23   ar
    40    22    43    1
    41    23    44    1
    42    24    45    1
    43    26    46    1
    44    27    47    1
    45    28    48    1
    46    29    49    1
    47    30    50    1
    48     1    31    1
    49     1    27    1
    50     2    32    1
    51     2    28    1
    52     4    34    1
    53     4    30    1
