@<TRIPOS>MOLECULE
*****
 50 53 0 0 0
SMALL
GASTEIGER

@<TRIPOS>ATOM
     1 C         -0.736955   1.58705   1.307277 C.3        1 UNL1     0.1889
     2 C         0.24939   1.041023   0.240076 C.3        1 UNL1     0.1342
     3 C         1.731757   1.122789   0.635511 C.3        1 UNL1     0.1174
     4 C         2.055001   2.362404   1.473357 C.3        1 UNL1     0.1456
     5 C         1.04086   2.587675   2.609638 C.3        1 UNL1     0.2326
     6 O         -0.275889   2.690731   2.072589 O.3        1 UNL1     -0.3076
     7 O         1.145072   1.62118   3.670933 O.3        1 UNL1     -0.4605
     8 C         1.638114   2.092938   4.874213 C.ar        1 UNL1     0.1310
     9 C         2.637347   1.479011   5.637054 C.ar        1 UNL1     0.0226
     10 C         3.082249   2.045489   6.837498 C.ar        1 UNL1     0.1343
     11 C         2.554923   3.253223   7.292633 C.ar        1 UNL1     0.1007
     12 C         1.527735   3.854621   6.56052 C.ar        1 UNL1     0.1389
     13 C         1.078711   3.283466   5.354871 C.ar        1 UNL1     0.0229
     14 C         3.04675   3.938812   8.5101 C.2        1 UNL1     0.1740
     15 C         2.525921   5.329139   8.72753 C.3        1 UNL1     0.0520
     16 C         1.049672   5.354197   8.356023 C.3        1 UNL1     0.1322
     17 O         0.86304   4.986712   6.971395 O.3        1 UNL1     -0.4828
     18 C         0.153852   4.597263   9.339528 C.ar        1 UNL1     -0.0067
     19 C         -1.246848   4.724901   9.239717 C.ar        1 UNL1     -0.0516
     20 C         -2.093368   4.08422   10.152349 C.ar        1 UNL1     -0.0198
     21 C         -1.55251   3.320775   11.171393 C.ar        1 UNL1     0.1169
     22 C         -0.178309   3.148939   11.275704 C.ar        1 UNL1     -0.0198
     23 C         0.667723   3.77451   10.352152 C.ar        1 UNL1     -0.0516
     24 O         -2.406668   2.742708   12.063947 O.3        1 UNL1     -0.5068
     25 O         3.886653   3.456208   9.265177 O.2        1 UNL1     -0.2917
     26 O         4.058826   1.396032   7.534698 O.3        1 UNL1     -0.5058
     27 O         -1.295797   0.575777   2.130569 O.3        1 UNL1     -0.3648
     28 O         0.085219   1.80768   -0.967397 O.3        1 UNL1     -0.3841
     29 O         2.158664   -0.091512   1.256281 O.3        1 UNL1     -0.3863
     30 O         2.058378   3.525307   0.617007 O.3        1 UNL1     -0.3829
     31 H         -1.594635   1.994647   0.761083 H        1 UNL1     0.0937
     32 H         0.0   -0.0   0.0 H        1 UNL1     0.0671
     33 H         2.321489   1.201109   -0.288503 H        1 UNL1     0.0649
     34 H         3.060926   2.274519   1.898554 H        1 UNL1     0.0683
     35 H         1.302316   3.57713   3.005237 H        1 UNL1     0.1085
     36 H         3.126361   0.568219   5.309266 H        1 UNL1     0.0691
     37 H         0.276991   3.77074   4.804142 H        1 UNL1     0.0691
     38 H         3.105552   6.003664   8.088334 H        1 UNL1     0.0385
     39 H         2.695283   5.616816   9.770764 H        1 UNL1     0.0385
     40 H         0.720228   6.400699   8.409135 H        1 UNL1     0.0789
     41 H         -1.69573   5.325937   8.45428 H        1 UNL1     0.0623
     42 H         -3.171393   4.200039   10.07198 H        1 UNL1     0.0654
     43 H         0.2552   2.541044   12.060844 H        1 UNL1     0.0654
     44 H         1.735759   3.60991   10.457277 H        1 UNL1     0.0623
     45 H         -1.94963   2.66028   12.916613 H        1 UNL1     0.2921
     46 H         3.669973   0.968093   8.313847 H        1 UNL1     0.2922
     47 H         -2.247127   0.502044   1.97121 H        1 UNL1     0.2126
     48 H         0.97891   2.086732   -1.245207 H        1 UNL1     0.2101
     49 H         1.685058   -0.218235   2.093797 H        1 UNL1     0.2100
     50 H         1.832154   3.232446   -0.290059 H        1 UNL1     0.2102
@<TRIPOS>BOND
     1     1     2    1
     2     1     6    1
     3     2     3    1
     4     3     4    1
     5     3    29    1
     6     3    33    1
     7     4     5    1
     8     5     6    1
     9     5     7    1
    10     5    35    1
    11     7     8    1
    12     8     9   ar
    13     8    13   ar
    14     9    10   ar
    15     9    36    1
    16    10    11   ar
    17    10    26    1
    18    11    12   ar
    19    11    14    1
    20    12    13   ar
    21    12    17    1
    22    13    37    1
    23    14    15    1
    24    14    25    2
    25    15    16    1
    26    15    38    1
    27    15    39    1
    28    16    17    1
    29    16    18    1
    30    16    40    1
    31    18    19   ar
    32    18    23   ar
    33    19    20   ar
    34    19    41    1
    35    20    21   ar
    36    20    42    1
    37    21    22   ar
    38    21    24    1
    39    22    23   ar
    40    22    43    1
    41    23    44    1
    42    24    45    1
    43    26    46    1
    44    27    47    1
    45    28    48    1
    46    29    49    1
    47    30    50    1
    48     1    31    1
    49     1    27    1
    50     2    32    1
    51     2    28    1
    52     4    34    1
    53     4    30    1
