@<TRIPOS>MOLECULE
*****
 50 53 0 0 0
SMALL
GASTEIGER

@<TRIPOS>ATOM
     1 C         -0.034216   -1.167894   1.845443 C.3        1 UNL1     0.1889
     2 C         -0.287627   -1.008478   0.322186 C.3        1 UNL1     0.1342
     3 C         -1.733456   -1.282331   -0.119457 C.3        1 UNL1     0.1174
     4 C         -2.404399   -2.38869   0.69842 C.3        1 UNL1     0.1456
     5 C         -2.182539   -2.220459   2.212633 C.3        1 UNL1     0.2326
     6 O         -0.786134   -2.180527   2.497812 O.3        1 UNL1     -0.3076
     7 O         -2.907562   -1.113563   2.77871 O.3        1 UNL1     -0.4605
     8 C         -3.729198   -0.418902   1.909292 C.ar        1 UNL1     0.1310
     9 C         -3.303373   0.272685   0.770134 C.ar        1 UNL1     0.0226
     10 C         -4.217428   0.933268   -0.059347 C.ar        1 UNL1     0.1343
     11 C         -5.583451   0.898231   0.217411 C.ar        1 UNL1     0.1007
     12 C         -6.016573   0.245437   1.374583 C.ar        1 UNL1     0.1389
     13 C         -5.097025   -0.416464   2.209897 C.ar        1 UNL1     0.0229
     14 C         -6.600829   1.507561   -0.670177 C.2        1 UNL1     0.1740
     15 C         -8.028284   1.184047   -0.339634 C.3        1 UNL1     0.0520
     16 C         -8.190609   1.212081   1.173913 C.3        1 UNL1     0.1322
     17 O         -7.324528   0.240368   1.800608 O.3        1 UNL1     -0.4828
     18 C         -8.108832   2.6167   1.776475 C.ar        1 UNL1     -0.0067
     19 C         -8.43066   2.806842   3.136065 C.ar        1 UNL1     -0.0516
     20 C         -8.412034   4.085131   3.706672 C.ar        1 UNL1     -0.0198
     21 C         -8.081141   5.179816   2.92821 C.ar        1 UNL1     0.1169
     22 C         -7.72699   5.020434   1.594788 C.ar        1 UNL1     -0.0198
     23 C         -7.727631   3.739999   1.028625 C.ar        1 UNL1     -0.0516
     24 O         -8.110514   6.413649   3.508894 O.3        1 UNL1     -0.5068
     25 O         -6.320043   2.171036   -1.664886 O.2        1 UNL1     -0.2917
     26 O         -3.737249   1.590412   -1.154415 O.3        1 UNL1     -0.5058
     27 O         -0.078985   0.058444   2.557397 O.3        1 UNL1     -0.3648
     28 O         0.558244   -1.937608   -0.380613 O.3        1 UNL1     -0.3841
     29 O         -2.494125   -0.072805   -0.143126 O.3        1 UNL1     -0.3863
     30 O         -1.872576   -3.668014   0.290762 O.3        1 UNL1     -0.3829
     31 H         1.001689   -1.506495   1.956481 H        1 UNL1     0.0937
     32 H         0.0   0.0   0.0 H        1 UNL1     0.0671
     33 H         -1.70562   -1.629936   -1.161627 H        1 UNL1     0.0649
     34 H         -3.47993   -2.407658   0.490393 H        1 UNL1     0.0683
     35 H         -2.56919   -3.153268   2.641874 H        1 UNL1     0.1085
     36 H         -2.261396   0.29021   0.469974 H        1 UNL1     0.0691
     37 H         -5.45956   -0.916445   3.105487 H        1 UNL1     0.0691
     38 H         -8.243822   0.188307   -0.741593 H        1 UNL1     0.0385
     39 H         -8.684653   1.904277   -0.839861 H        1 UNL1     0.0385
     40 H         -9.206434   0.858816   1.397124 H        1 UNL1     0.0789
     41 H         -8.702597   1.96488   3.765986 H        1 UNL1     0.0623
     42 H         -8.673719   4.220252   4.753226 H        1 UNL1     0.0654
     43 H         -7.451633   5.869012   0.979967 H        1 UNL1     0.0654
     44 H         -7.435363   3.651086   -0.013258 H        1 UNL1     0.0623
     45 H         -8.666212   6.365432   4.303621 H        1 UNL1     0.2921
     46 H         -4.297203   1.392642   -1.921716 H        1 UNL1     0.2922
     47 H         -0.984206   0.248028   2.841108 H        1 UNL1     0.2126
     48 H         0.014791   -2.327474   -1.092227 H        1 UNL1     0.2101
     49 H         -3.381445   -0.233921   0.215342 H        1 UNL1     0.2100
     50 H         -1.22736   -3.95634   0.9692 H        1 UNL1     0.2102
@<TRIPOS>BOND
     1     1     2    1
     2     1     6    1
     3     2     3    1
     4     3     4    1
     5     3    29    1
     6     3    33    1
     7     4     5    1
     8     5     6    1
     9     5     7    1
    10     5    35    1
    11     7     8    1
    12     8     9   ar
    13     8    13   ar
    14     9    10   ar
    15     9    36    1
    16    10    11   ar
    17    10    26    1
    18    11    12   ar
    19    11    14    1
    20    12    13   ar
    21    12    17    1
    22    13    37    1
    23    14    15    1
    24    14    25    2
    25    15    16    1
    26    15    38    1
    27    15    39    1
    28    16    17    1
    29    16    18    1
    30    16    40    1
    31    18    19   ar
    32    18    23   ar
    33    19    20   ar
    34    19    41    1
    35    20    21   ar
    36    20    42    1
    37    21    22   ar
    38    21    24    1
    39    22    23   ar
    40    22    43    1
    41    23    44    1
    42    24    45    1
    43    26    46    1
    44    27    47    1
    45    28    48    1
    46    29    49    1
    47    30    50    1
    48     1    31    1
    49     1    27    1
    50     2    32    1
    51     2    28    1
    52     4    34    1
    53     4    30    1
