@<TRIPOS>MOLECULE
*****
 50 53 0 0 0
SMALL
GASTEIGER

@<TRIPOS>ATOM
     1 C         1.656252   -0.542078   -1.316733 C.3        1 UNL1     0.1889
     2 C         0.712713   -0.825771   -0.11707 C.3        1 UNL1     0.1342
     3 C         1.429926   -1.062171   1.220909 C.3        1 UNL1     0.1174
     4 C         2.767286   -1.788652   1.057173 C.3        1 UNL1     0.1456
     5 C         3.62746   -1.194104   -0.072861 C.3        1 UNL1     0.2326
     6 O         2.90319   -1.221256   -1.30069 O.3        1 UNL1     -0.3076
     7 O         4.165031   0.104143   0.238415 O.3        1 UNL1     -0.4605
     8 C         3.586152   0.758766   1.310747 C.ar        1 UNL1     0.1310
     9 C         2.613831   0.219889   2.160162 C.ar        1 UNL1     0.0226
     10 C         2.099992   0.958579   3.23264 C.ar        1 UNL1     0.1343
     11 C         2.563796   2.246693   3.496248 C.ar        1 UNL1     0.1007
     12 C         3.504714   2.810748   2.630627 C.ar        1 UNL1     0.1389
     13 C         4.019288   2.068768   1.55076 C.ar        1 UNL1     0.0229
     14 C         2.116999   3.040108   4.664588 C.2        1 UNL1     0.1740
     15 C         2.879723   4.307004   4.919101 C.3        1 UNL1     0.0520
     16 C         3.165046   4.974696   3.580917 C.3        1 UNL1     0.1322
     17 O         3.950265   4.10819   2.732585 O.3        1 UNL1     -0.4828
     18 C         1.922508   5.56412   2.909052 C.ar        1 UNL1     -0.0067
     19 C         1.400428   6.789456   3.371866 C.ar        1 UNL1     -0.0516
     20 C         0.238294   7.33266   2.811209 C.ar        1 UNL1     -0.0198
     21 C         -0.413676   6.658103   1.794481 C.ar        1 UNL1     0.1169
     22 C         0.094685   5.466215   1.29467 C.ar        1 UNL1     -0.0198
     23 C         1.26706   4.932045   1.842625 C.ar        1 UNL1     -0.0516
     24 O         -1.563609   7.198838   1.298839 O.3        1 UNL1     -0.5068
     25 O         1.237197   2.669252   5.43718 O.2        1 UNL1     -0.2917
     26 O         1.152739   0.375567   4.022825 O.3        1 UNL1     -0.5058
     27 O         1.816041   0.839708   -1.595875 O.3        1 UNL1     -0.3648
     28 O         -0.051949   -2.010314   -0.40837 O.3        1 UNL1     -0.3841
     29 O         1.549247   0.158195   1.954803 O.3        1 UNL1     -0.3863
     30 O         2.51754   -3.181119   0.766737 O.3        1 UNL1     -0.3829
     31 H         1.158666   -0.941305   -2.207297 H        1 UNL1     0.0937
     32 H         0.0   0.0   0.0 H        1 UNL1     0.0671
     33 H         0.789207   -1.710414   1.834896 H        1 UNL1     0.0649
     34 H         3.329715   -1.753054   1.996752 H        1 UNL1     0.0683
     35 H         4.456821   -1.905022   -0.175986 H        1 UNL1     0.1085
     36 H         2.25306   -0.795974   2.041892 H        1 UNL1     0.0691
     37 H         4.750196   2.531127   0.890844 H        1 UNL1     0.0691
     38 H         3.809063   4.036763   5.431763 H        1 UNL1     0.0385
     39 H         2.29547   4.949826   5.58634 H        1 UNL1     0.0385
     40 H         3.821841   5.832191   3.780524 H        1 UNL1     0.0789
     41 H         1.888558   7.33378   4.175042 H        1 UNL1     0.0623
     42 H         -0.161039   8.27231   3.184843 H        1 UNL1     0.0654
     43 H         -0.399554   4.937295   0.488517 H        1 UNL1     0.0654
     44 H         1.641776   4.004497   1.420621 H        1 UNL1     0.0623
     45 H         -2.132924   6.476505   0.987661 H        1 UNL1     0.2921
     46 H         1.585688   -0.102953   4.747384 H        1 UNL1     0.2922
     47 H         1.780044   0.994873   -2.55007 H        1 UNL1     0.2126
     48 H         0.369678   -2.742766   0.080994 H        1 UNL1     0.2101
     49 H         1.559354   0.911517   1.343085 H        1 UNL1     0.2100
     50 H         3.359707   -3.668546   0.880235 H        1 UNL1     0.2102
@<TRIPOS>BOND
     1     1     2    1
     2     1     6    1
     3     2     3    1
     4     3     4    1
     5     3    29    1
     6     3    33    1
     7     4     5    1
     8     5     6    1
     9     5     7    1
    10     5    35    1
    11     7     8    1
    12     8     9   ar
    13     8    13   ar
    14     9    10   ar
    15     9    36    1
    16    10    11   ar
    17    10    26    1
    18    11    12   ar
    19    11    14    1
    20    12    13   ar
    21    12    17    1
    22    13    37    1
    23    14    15    1
    24    14    25    2
    25    15    16    1
    26    15    38    1
    27    15    39    1
    28    16    17    1
    29    16    18    1
    30    16    40    1
    31    18    19   ar
    32    18    23   ar
    33    19    20   ar
    34    19    41    1
    35    20    21   ar
    36    20    42    1
    37    21    22   ar
    38    21    24    1
    39    22    23   ar
    40    22    43    1
    41    23    44    1
    42    24    45    1
    43    26    46    1
    44    27    47    1
    45    28    48    1
    46    29    49    1
    47    30    50    1
    48     1    31    1
    49     1    27    1
    50     2    32    1
    51     2    28    1
    52     4    34    1
    53     4    30    1
