@<TRIPOS>MOLECULE
*****
 50 53 0 0 0
SMALL
GASTEIGER

@<TRIPOS>ATOM
     1 C         -0.33223   -1.328178   1.701873 C.3        1 UNL1     0.1889
     2 C         -0.462536   -0.975353   0.195727 C.3        1 UNL1     0.1342
     3 C         -1.903319   -0.96276   -0.337611 C.3        1 UNL1     0.1174
     4 C         -2.789751   -2.021916   0.322347 C.3        1 UNL1     0.1456
     5 C         -2.638282   -2.047148   1.854269 C.3        1 UNL1     0.2326
     6 O         -1.273433   -2.265286   2.204228 O.3        1 UNL1     -0.3076
     7 O         -3.213196   -0.900014   2.506096 O.3        1 UNL1     -0.4605
     8 C         -3.722854   -1.115299   3.77394 C.ar        1 UNL1     0.1310
     9 C         -4.539135   -2.188263   4.14775 C.ar        1 UNL1     0.0226
     10 C         -4.992042   -2.328468   5.46499 C.ar        1 UNL1     0.1343
     11 C         -4.619733   -1.411148   6.446698 C.ar        1 UNL1     0.1007
     12 C         -3.838647   -0.313086   6.076632 C.ar        1 UNL1     0.1389
     13 C         -3.385559   -0.170899   4.751519 C.ar        1 UNL1     0.0229
     14 C         -5.000332   -1.556782   7.870807 C.2        1 UNL1     0.1740
     15 C         -4.331406   -0.60836   8.821903 C.3        1 UNL1     0.0520
     16 C         -4.262212   0.763524   8.165317 C.3        1 UNL1     0.1322
     17 O         -3.503679   0.706528   6.937127 O.3        1 UNL1     -0.4828
     18 C         -5.621503   1.455848   8.039857 C.ar        1 UNL1     -0.0067
     19 C         -6.000679   2.018457   6.803771 C.ar        1 UNL1     -0.0516
     20 C         -7.215993   2.699896   6.66733 C.ar        1 UNL1     -0.0198
     21 C         -8.055651   2.831634   7.758864 C.ar        1 UNL1     0.1169
     22 C         -7.72526   2.259632   8.980541 C.ar        1 UNL1     -0.0198
     23 C         -6.518488   1.562242   9.112467 C.ar        1 UNL1     -0.0516
     24 O         -9.213396   3.534545   7.597795 O.3        1 UNL1     -0.5068
     25 O         -5.749055   -2.438452   8.283793 O.2        1 UNL1     -0.2917
     26 O         -5.786283   -3.396779   5.76412 O.3        1 UNL1     -0.5058
     27 O         -0.226915   -0.189899   2.542121 O.3        1 UNL1     -0.3648
     28 O         0.26799   -1.953897   -0.566827 O.3        1 UNL1     -0.3841
     29 O         -2.460666   0.350906   -0.261598 O.3        1 UNL1     -0.3863
     30 O         -2.442255   -3.322779   -0.199853 O.3        1 UNL1     -0.3829
     31 H         0.628385   -1.841107   1.821039 H        1 UNL1     0.0937
     32 H         0.0   0.0   0.0 H        1 UNL1     0.0671
     33 H         -1.866228   -1.202391   -1.409488 H        1 UNL1     0.0649
     34 H         -3.839836   -1.843518   0.065645 H        1 UNL1     0.0683
     35 H         -3.193095   -2.942948   2.160216 H        1 UNL1     0.1085
     36 H         -4.81758   -2.96508   3.444085 H        1 UNL1     0.0691
     37 H         -2.779574   0.693526   4.488754 H        1 UNL1     0.0691
     38 H         -3.32903   -0.998415   9.028363 H        1 UNL1     0.0385
     39 H         -4.891519   -0.589194   9.763011 H        1 UNL1     0.0385
     40 H         -3.667283   1.408833   8.825737 H        1 UNL1     0.0789
     41 H         -5.354948   1.936622   5.934297 H        1 UNL1     0.0623
     42 H         -7.491671   3.139609   5.711995 H        1 UNL1     0.0654
     43 H         -8.382394   2.343843   9.837859 H        1 UNL1     0.0654
     44 H         -6.297242   1.119048   10.078632 H        1 UNL1     0.0623
     45 H         -8.98743   4.442064   7.336901 H        1 UNL1     0.2921
     46 H         -5.382345   -3.909198   6.482224 H        1 UNL1     0.2922
     47 H         0.516129   0.363763   2.264267 H        1 UNL1     0.2126
     48 H         1.200889   -1.888118   -0.285571 H        1 UNL1     0.2101
     49 H         -2.0217   0.933191   -0.901947 H        1 UNL1     0.2100
     50 H         -2.675425   -3.337885   -1.151229 H        1 UNL1     0.2102
@<TRIPOS>BOND
     1     1     2    1
     2     1     6    1
     3     2     3    1
     4     3     4    1
     5     3    29    1
     6     3    33    1
     7     4     5    1
     8     5     6    1
     9     5     7    1
    10     5    35    1
    11     7     8    1
    12     8     9   ar
    13     8    13   ar
    14     9    10   ar
    15     9    36    1
    16    10    11   ar
    17    10    26    1
    18    11    12   ar
    19    11    14    1
    20    12    13   ar
    21    12    17    1
    22    13    37    1
    23    14    15    1
    24    14    25    2
    25    15    16    1
    26    15    38    1
    27    15    39    1
    28    16    17    1
    29    16    18    1
    30    16    40    1
    31    18    19   ar
    32    18    23   ar
    33    19    20   ar
    34    19    41    1
    35    20    21   ar
    36    20    42    1
    37    21    22   ar
    38    21    24    1
    39    22    23   ar
    40    22    43    1
    41    23    44    1
    42    24    45    1
    43    26    46    1
    44    27    47    1
    45    28    48    1
    46    29    49    1
    47    30    50    1
    48     1    31    1
    49     1    27    1
    50     2    32    1
    51     2    28    1
    52     4    34    1
    53     4    30    1
