@<TRIPOS>MOLECULE
*****
 50 53 0 0 0
SMALL
GASTEIGER

@<TRIPOS>ATOM
     1 C         1.384275   -1.009352   1.354915 C.3        1 UNL1     0.1889
     2 C         0.059159   -0.254175   1.065578 C.3        1 UNL1     0.1342
     3 C         -0.14682   1.021186   1.897139 C.3        1 UNL1     0.1174
     4 C         0.422609   0.904797   3.313232 C.3        1 UNL1     0.1456
     5 C         1.842708   0.310359   3.331331 C.3        1 UNL1     0.2326
     6 O         1.843016   -0.967098   2.698108 O.3        1 UNL1     -0.3076
     7 O         2.843958   1.201746   2.807646 O.3        1 UNL1     -0.4605
     8 C         3.948237   0.60101   2.230401 C.ar        1 UNL1     0.1310
     9 C         5.072221   1.273538   1.738806 C.ar        1 UNL1     0.0226
     10 C         6.150655   0.572635   1.18598 C.ar        1 UNL1     0.1343
     11 C         6.141511   -0.820545   1.133002 C.ar        1 UNL1     0.1007
     12 C         5.00715   -1.501192   1.583256 C.ar        1 UNL1     0.1389
     13 C         3.9218   -0.79607   2.136655 C.ar        1 UNL1     0.0229
     14 C         7.288806   -1.615095   0.636456 C.2        1 UNL1     0.1740
     15 C         7.197099   -3.096343   0.857912 C.3        1 UNL1     0.0520
     16 C         5.764387   -3.535851   0.589348 C.3        1 UNL1     0.1322
     17 O         4.846356   -2.863401   1.479349 O.3        1 UNL1     -0.4828
     18 C         5.369891   -3.481256   -0.888528 C.ar        1 UNL1     -0.0067
     19 C         4.127265   -4.010402   -1.293619 C.ar        1 UNL1     -0.0516
     20 C         3.756011   -4.019319   -2.643454 C.ar        1 UNL1     -0.0198
     21 C         4.619708   -3.509891   -3.596521 C.ar        1 UNL1     0.1169
     22 C         5.835889   -2.951584   -3.224987 C.ar        1 UNL1     -0.0198
     23 C         6.199455   -2.925783   -1.873244 C.ar        1 UNL1     -0.0516
     24 O         4.240213   -3.570034   -4.905248 O.3        1 UNL1     -0.5068
     25 O         8.296623   -1.113439   0.145407 O.2        1 UNL1     -0.2917
     26 O         7.216298   1.288117   0.723296 O.3        1 UNL1     -0.5058
     27 O         2.421818   -0.702544   0.437222 O.3        1 UNL1     -0.3648
     28 O         -1.041139   -1.136467   1.354732 O.3        1 UNL1     -0.3841
     29 O         0.341096   2.167374   1.196908 O.3        1 UNL1     -0.3863
     30 O         -0.443344   0.062134   4.104265 O.3        1 UNL1     -0.3829
     31 H         1.181431   -2.072705   1.186946 H        1 UNL1     0.0937
     32 H         0.0   0.0   0.0 H        1 UNL1     0.0671
     33 H         -1.22888   1.182066   2.001944 H        1 UNL1     0.0649
     34 H         0.436723   1.889806   3.792772 H        1 UNL1     0.0683
     35 H         2.044008   0.138573   4.396153 H        1 UNL1     0.1085
     36 H         5.164236   2.35226   1.802162 H        1 UNL1     0.0691
     37 H         3.049924   -1.34932   2.479057 H        1 UNL1     0.0691
     38 H         7.482819   -3.294242   1.896529 H        1 UNL1     0.0385
     39 H         7.914988   -3.602255   0.203337 H        1 UNL1     0.0385
     40 H         5.692746   -4.595313   0.870289 H        1 UNL1     0.0789
     41 H         3.435528   -4.424488   -0.565825 H        1 UNL1     0.0623
     42 H         2.800198   -4.440962   -2.944536 H        1 UNL1     0.0654
     43 H         6.513304   -2.536253   -3.961546 H        1 UNL1     0.0654
     44 H         7.15234   -2.472391   -1.617722 H        1 UNL1     0.0623
     45 H         3.295869   -3.351377   -4.961099 H        1 UNL1     0.2921
     46 H         6.910821   1.93823   0.071032 H        1 UNL1     0.2922
     47 H         3.284136   -0.778973   0.868994 H        1 UNL1     0.2126
     48 H         -1.09608   -1.205589   2.327325 H        1 UNL1     0.2101
     49 H         1.208987   1.972351   0.808932 H        1 UNL1     0.2100
     50 H         0.117746   -0.452479   4.720758 H        1 UNL1     0.2102
@<TRIPOS>BOND
     1     1     2    1
     2     1     6    1
     3     2     3    1
     4     3     4    1
     5     3    29    1
     6     3    33    1
     7     4     5    1
     8     5     6    1
     9     5     7    1
    10     5    35    1
    11     7     8    1
    12     8     9   ar
    13     8    13   ar
    14     9    10   ar
    15     9    36    1
    16    10    11   ar
    17    10    26    1
    18    11    12   ar
    19    11    14    1
    20    12    13   ar
    21    12    17    1
    22    13    37    1
    23    14    15    1
    24    14    25    2
    25    15    16    1
    26    15    38    1
    27    15    39    1
    28    16    17    1
    29    16    18    1
    30    16    40    1
    31    18    19   ar
    32    18    23   ar
    33    19    20   ar
    34    19    41    1
    35    20    21   ar
    36    20    42    1
    37    21    22   ar
    38    21    24    1
    39    22    23   ar
    40    22    43    1
    41    23    44    1
    42    24    45    1
    43    26    46    1
    44    27    47    1
    45    28    48    1
    46    29    49    1
    47    30    50    1
    48     1    31    1
    49     1    27    1
    50     2    32    1
    51     2    28    1
    52     4    34    1
    53     4    30    1
