@<TRIPOS>MOLECULE
*****
 50 53 0 0 0
SMALL
GASTEIGER

@<TRIPOS>ATOM
     1 C         -0.330127   -1.327106   1.703118 C.3        1 UNL1     0.1889
     2 C         -0.461546   -0.975615   0.196757 C.3        1 UNL1     0.1342
     3 C         -1.902621   -0.964761   -0.335831 C.3        1 UNL1     0.1174
     4 C         -2.787742   -2.024189   0.325448 C.3        1 UNL1     0.1456
     5 C         -2.635443   -2.048048   1.857309 C.3        1 UNL1     0.2326
     6 O         -1.270213   -2.264664   2.206724 O.3        1 UNL1     -0.3076
     7 O         -3.211056   -0.900911   2.508514 O.3        1 UNL1     -0.4605
     8 C         -3.187009   0.280229   1.788891 C.ar        1 UNL1     0.1310
     9 C         -2.08395   0.779974   1.088308 C.ar        1 UNL1     0.0226
     10 C         -2.16424   1.98087   0.373253 C.ar        1 UNL1     0.1343
     11 C         -3.357723   2.699754   0.321818 C.ar        1 UNL1     0.1007
     12 C         -4.454171   2.231944   1.051021 C.ar        1 UNL1     0.1389
     13 C         -4.37241   1.02579   1.772088 C.ar        1 UNL1     0.0229
     14 C         -3.52252   3.930155   -0.486335 C.2        1 UNL1     0.1740
     15 C         -4.926541   4.446242   -0.604352 C.3        1 UNL1     0.0520
     16 C         -5.609002   4.29981   0.748705 C.3        1 UNL1     0.1322
     17 O         -5.643414   2.914896   1.158462 O.3        1 UNL1     -0.4828
     18 C         -5.079369   5.263409   1.813453 C.ar        1 UNL1     -0.0067
     19 C         -4.731263   4.765918   3.086064 C.ar        1 UNL1     -0.0516
     20 C         -4.288687   5.626847   4.097445 C.ar        1 UNL1     -0.0198
     21 C         -4.197098   6.985153   3.851594 C.ar        1 UNL1     0.1169
     22 C         -4.500801   7.500817   2.59832 C.ar        1 UNL1     -0.0198
     23 C         -4.92577   6.637762   1.58117 C.ar        1 UNL1     -0.0516
     24 O         -3.798436   7.797421   4.872226 O.3        1 UNL1     -0.5068
     25 O         -2.601443   4.466842   -1.096308 O.2        1 UNL1     -0.2917
     26 O         -1.052056   2.413958   -0.287856 O.3        1 UNL1     -0.5058
     27 O         -0.225404   -0.188054   2.542393 O.3        1 UNL1     -0.3648
     28 O         0.269468   -1.95411   -0.565393 O.3        1 UNL1     -0.3841
     29 O         -2.461121   0.348459   -0.260584 O.3        1 UNL1     -0.3863
     30 O         -2.439338   -3.325156   -0.195887 O.3        1 UNL1     -0.3829
     31 H         0.631017   -1.839066   1.822191 H        1 UNL1     0.0937
     32 H         0.0   0.0   0.0 H        1 UNL1     0.0671
     33 H         -1.865876   -1.205222   -1.407535 H        1 UNL1     0.0649
     34 H         -3.838124   -1.846953   0.069155 H        1 UNL1     0.0683
     35 H         -3.189281   -2.944104   2.164271 H        1 UNL1     0.1085
     36 H         -1.144645   0.239795   1.043216 H        1 UNL1     0.0691
     37 H         -5.239862   0.683795   2.332499 H        1 UNL1     0.0691
     38 H         -5.435147   3.850443   -1.369774 H        1 UNL1     0.0385
     39 H         -4.898937   5.487343   -0.943652 H        1 UNL1     0.0385
     40 H         -6.664246   4.571409   0.610085 H        1 UNL1     0.0789
     41 H         -4.803204   3.70493   3.306925 H        1 UNL1     0.0623
     42 H         -4.034583   5.232594   5.078265 H        1 UNL1     0.0654
     43 H         -4.418204   8.560951   2.390466 H        1 UNL1     0.0654
     44 H         -5.144546   7.073591   0.6111 H        1 UNL1     0.0623
     45 H         -4.435034   7.710223   5.600139 H        1 UNL1     0.2921
     46 H         -1.260825   2.534654   -1.227675 H        1 UNL1     0.2922
     47 H         0.517096   0.36597   2.263807 H        1 UNL1     0.2126
     48 H         1.202335   -1.887744   -0.28417 H        1 UNL1     0.2101
     49 H         -2.023022   0.930626   -0.901633 H        1 UNL1     0.2100
     50 H         -2.672996   -3.341241   -1.147127 H        1 UNL1     0.2102
@<TRIPOS>BOND
     1     1     2    1
     2     1     6    1
     3     2     3    1
     4     3     4    1
     5     3    29    1
     6     3    33    1
     7     4     5    1
     8     5     6    1
     9     5     7    1
    10     5    35    1
    11     7     8    1
    12     8     9   ar
    13     8    13   ar
    14     9    10   ar
    15     9    36    1
    16    10    11   ar
    17    10    26    1
    18    11    12   ar
    19    11    14    1
    20    12    13   ar
    21    12    17    1
    22    13    37    1
    23    14    15    1
    24    14    25    2
    25    15    16    1
    26    15    38    1
    27    15    39    1
    28    16    17    1
    29    16    18    1
    30    16    40    1
    31    18    19   ar
    32    18    23   ar
    33    19    20   ar
    34    19    41    1
    35    20    21   ar
    36    20    42    1
    37    21    22   ar
    38    21    24    1
    39    22    23   ar
    40    22    43    1
    41    23    44    1
    42    24    45    1
    43    26    46    1
    44    27    47    1
    45    28    48    1
    46    29    49    1
    47    30    50    1
    48     1    31    1
    49     1    27    1
    50     2    32    1
    51     2    28    1
    52     4    34    1
    53     4    30    1
