@<TRIPOS>MOLECULE
*****
 50 53 0 0 0
SMALL
GASTEIGER

@<TRIPOS>ATOM
     1 C         -0.004778   -1.108341   1.882116 C.3        1 UNL1     0.1889
     2 C         -0.266379   -1.003092   0.355542 C.3        1 UNL1     0.1342
     3 C         -1.707917   -1.319638   -0.071346 C.3        1 UNL1     0.1174
     4 C         -2.353934   -2.412188   0.78429 C.3        1 UNL1     0.1456
     5 C         -2.130444   -2.190942   2.291428 C.3        1 UNL1     0.2326
     6 O         -0.734174   -2.114166   2.569643 O.3        1 UNL1     -0.3076
     7 O         -2.875519   -1.080996   2.824536 O.3        1 UNL1     -0.4605
     8 C         -3.278884   -1.198728   4.142475 C.ar        1 UNL1     0.1310
     9 C         -3.86691   -2.333425   4.711675 C.ar        1 UNL1     0.0226
     10 C         -4.22605   -2.361023   6.064509 C.ar        1 UNL1     0.1343
     11 C         -3.983819   -1.261927   6.887402 C.ar        1 UNL1     0.1007
     12 C         -3.434783   -0.10841   6.321063 C.ar        1 UNL1     0.1389
     13 C         -3.076186   -0.079975   4.96017 C.ar        1 UNL1     0.0229
     14 C         -4.266095   -1.266876   8.341517 C.2        1 UNL1     0.1740
     15 C         -3.73967   -0.08992   9.109111 C.3        1 UNL1     0.0520
     16 C         -3.952929   1.164721   8.273436 C.3        1 UNL1     0.1322
     17 O         -3.253478   1.066467   7.013205 O.3        1 UNL1     -0.4828
     18 C         -5.420326   1.583176   8.153579 C.ar        1 UNL1     -0.0067
     19 C         -5.951506   1.889947   6.883952 C.ar        1 UNL1     -0.0516
     20 C         -7.276014   2.321485   6.744605 C.ar        1 UNL1     -0.0198
     21 C         -8.07553   2.457064   7.865417 C.ar        1 UNL1     0.1169
     22 C         -7.591186   2.130549   9.125433 C.ar        1 UNL1     -0.0198
     23 C         -6.272347   1.681333   9.263002 C.ar        1 UNL1     -0.0516
     24 O         -9.348548   2.916131   7.694881 O.3        1 UNL1     -0.5068
     25 O         -4.82104   -2.197801   8.919358 O.2        1 UNL1     -0.2917
     26 O         -4.796684   -3.498002   6.557704 O.3        1 UNL1     -0.5058
     27 O         -0.071636   0.139147   2.554494 O.3        1 UNL1     -0.3648
     28 O         0.595519   -1.937402   -0.320403 O.3        1 UNL1     -0.3841
     29 O         -2.492638   -0.126823   -0.13083 O.3        1 UNL1     -0.3863
     30 O         -1.798052   -3.69317   0.415821 O.3        1 UNL1     -0.3829
     31 H         1.038039   -1.422582   1.999865 H        1 UNL1     0.0937
     32 H         0.0   0.0   0.0 H        1 UNL1     0.0671
     33 H         -1.676615   -1.699984   -1.101918 H        1 UNL1     0.0649
     34 H         -3.429557   -2.459168   0.581243 H        1 UNL1     0.0683
     35 H         -2.496981   -3.116936   2.751932 H        1 UNL1     0.1085
     36 H         -4.030053   -3.239475   4.138458 H        1 UNL1     0.0691
     37 H         -2.651418   0.830629   4.543198 H        1 UNL1     0.0691
     38 H         -2.674462   -0.264849   9.2942 H        1 UNL1     0.0385
     39 H         -4.250402   -0.034808   10.076528 H        1 UNL1     0.0385
     40 H         -3.456867   1.991904   8.798995 H        1 UNL1     0.0789
     41 H         -5.34157   1.800407   5.989742 H        1 UNL1     0.0623
     42 H         -7.67038   2.566389   5.761493 H        1 UNL1     0.0654
     43 H         -8.213304   2.218684   10.008106 H        1 UNL1     0.0654
     44 H         -5.930309   1.425026   10.261081 H        1 UNL1     0.0623
     45 H         -9.304717   3.803022   7.302171 H        1 UNL1     0.2921
     46 H         -4.273456   -3.823783   7.307044 H        1 UNL1     0.2922
     47 H         0.543766   0.768881   2.153778 H        1 UNL1     0.2126
     48 H         1.512415   -1.669597   -0.117144 H        1 UNL1     0.2101
     49 H         -2.197676   0.425621   -0.872178 H        1 UNL1     0.2100
     50 H         -2.067799   -3.884924   -0.506231 H        1 UNL1     0.2102
@<TRIPOS>BOND
     1     1     2    1
     2     1     6    1
     3     2     3    1
     4     3     4    1
     5     3    29    1
     6     3    33    1
     7     4     5    1
     8     5     6    1
     9     5     7    1
    10     5    35    1
    11     7     8    1
    12     8     9   ar
    13     8    13   ar
    14     9    10   ar
    15     9    36    1
    16    10    11   ar
    17    10    26    1
    18    11    12   ar
    19    11    14    1
    20    12    13   ar
    21    12    17    1
    22    13    37    1
    23    14    15    1
    24    14    25    2
    25    15    16    1
    26    15    38    1
    27    15    39    1
    28    16    17    1
    29    16    18    1
    30    16    40    1
    31    18    19   ar
    32    18    23   ar
    33    19    20   ar
    34    19    41    1
    35    20    21   ar
    36    20    42    1
    37    21    22   ar
    38    21    24    1
    39    22    23   ar
    40    22    43    1
    41    23    44    1
    42    24    45    1
    43    26    46    1
    44    27    47    1
    45    28    48    1
    46    29    49    1
    47    30    50    1
    48     1    31    1
    49     1    27    1
    50     2    32    1
    51     2    28    1
    52     4    34    1
    53     4    30    1
