@<TRIPOS>MOLECULE
*****
 50 53 0 0 0
SMALL
GASTEIGER

@<TRIPOS>ATOM
     1 C         -0.503152   -1.187419   1.762861 C.3        1 UNL1     0.1889
     2 C         -0.503647   -0.947309   0.229144 C.3        1 UNL1     0.1342
     3 C         -1.896657   -0.943779   -0.418911 C.3        1 UNL1     0.1174
     4 C         -2.861871   -1.930079   0.243427 C.3        1 UNL1     0.1456
     5 C         -2.833189   -1.842127   1.780244 C.3        1 UNL1     0.2326
     6 O         -1.507031   -2.062834   2.255071 O.3        1 UNL1     -0.3076
     7 O         -3.425769   -0.636477   2.296557 O.3        1 UNL1     -0.4605
     8 C         -4.040224   -0.743592   3.531263 C.ar        1 UNL1     0.1310
     9 C         -4.913217   -1.766937   3.915905 C.ar        1 UNL1     0.0226
     10 C         -5.472945   -1.796696   5.198761 C.ar        1 UNL1     0.1343
     11 C         -5.154246   -0.815785   6.136891 C.ar        1 UNL1     0.1007
     12 C         -4.315921   0.233634   5.751255 C.ar        1 UNL1     0.1389
     13 C         -3.755331   0.264765   4.460441 C.ar        1 UNL1     0.0229
     14 C         -5.650554   -0.844415   7.532244 C.2        1 UNL1     0.1740
     15 C         -5.032991   0.158686   8.461735 C.3        1 UNL1     0.0520
     16 C         -4.87366   1.474863   7.713237 C.3        1 UNL1     0.1322
     17 O         -4.021958   1.308121   6.558304 O.3        1 UNL1     -0.4828
     18 C         -6.198858   2.185211   7.426917 C.ar        1 UNL1     -0.0067
     19 C         -6.462915   2.660415   6.125891 C.ar        1 UNL1     -0.0516
     20 C         -7.644079   3.355928   5.841155 C.ar        1 UNL1     -0.0198
     21 C         -8.563691   3.588567   6.84814 C.ar        1 UNL1     0.1169
     22 C         -8.347366   3.103972   8.131577 C.ar        1 UNL1     -0.0198
     23 C         -7.1748   2.392401   8.412313 C.ar        1 UNL1     -0.0516
     24 O         -9.684936   4.302356   6.542011 O.3        1 UNL1     -0.5068
     25 O         -6.453997   -1.675566   7.947157 O.2        1 UNL1     -0.2917
     26 O         -6.31792   -2.821559   5.510621 O.3        1 UNL1     -0.5058
     27 O         -0.43311   0.008846   2.522354 O.3        1 UNL1     -0.3648
     28 O         0.257484   -1.996715   -0.397062 O.3        1 UNL1     -0.3841
     29 O         -2.421398   0.383739   -0.485822 O.3        1 UNL1     -0.3863
     30 O         -2.510478   -3.274151   -0.151138 O.3        1 UNL1     -0.3829
     31 H         0.430289   -1.710694   1.997273 H        1 UNL1     0.0937
     32 H         0.0   0.0   0.0 H        1 UNL1     0.0671
     33 H         -1.781339   -1.264927   -1.463557 H        1 UNL1     0.0649
     34 H         -3.882889   -1.748784   -0.110203 H        1 UNL1     0.0683
     35 H         -3.435311   -2.699737   2.105561 H        1 UNL1     0.1085
     36 H         -5.156524   -2.588707   3.251362 H        1 UNL1     0.0691
     37 H         -3.106521   1.093262   4.184523 H        1 UNL1     0.0691
     38 H         -4.061434   -0.236379   8.777214 H        1 UNL1     0.0385
     39 H         -5.665255   0.26156   9.350238 H        1 UNL1     0.0385
     40 H         -4.315229   2.15533   8.370231 H        1 UNL1     0.0789
     41 H         -5.752769   2.498639   5.320178 H        1 UNL1     0.0623
     42 H         -7.83071   3.727693   4.836679 H        1 UNL1     0.0654
     43 H         -9.067843   3.267442   8.924105 H        1 UNL1     0.0654
     44 H         -7.043365   2.019179   9.423389 H        1 UNL1     0.0623
     45 H         -9.413744   5.182264   6.233901 H        1 UNL1     0.2921
     46 H         -5.986599   -3.286743   6.294994 H        1 UNL1     0.2922
     47 H         0.344799   0.523409   2.265563 H        1 UNL1     0.2126
     48 H         1.166598   -1.930169   -0.04661 H        1 UNL1     0.2101
     49 H         -1.916929   0.905938   -1.129727 H        1 UNL1     0.2100
     50 H         -2.667758   -3.35641   -1.114574 H        1 UNL1     0.2102
@<TRIPOS>BOND
     1     1     2    1
     2     1     6    1
     3     2     3    1
     4     3     4    1
     5     3    29    1
     6     3    33    1
     7     4     5    1
     8     5     6    1
     9     5     7    1
    10     5    35    1
    11     7     8    1
    12     8     9   ar
    13     8    13   ar
    14     9    10   ar
    15     9    36    1
    16    10    11   ar
    17    10    26    1
    18    11    12   ar
    19    11    14    1
    20    12    13   ar
    21    12    17    1
    22    13    37    1
    23    14    15    1
    24    14    25    2
    25    15    16    1
    26    15    38    1
    27    15    39    1
    28    16    17    1
    29    16    18    1
    30    16    40    1
    31    18    19   ar
    32    18    23   ar
    33    19    20   ar
    34    19    41    1
    35    20    21   ar
    36    20    42    1
    37    21    22   ar
    38    21    24    1
    39    22    23   ar
    40    22    43    1
    41    23    44    1
    42    24    45    1
    43    26    46    1
    44    27    47    1
    45    28    48    1
    46    29    49    1
    47    30    50    1
    48     1    31    1
    49     1    27    1
    50     2    32    1
    51     2    28    1
    52     4    34    1
    53     4    30    1
