@<TRIPOS>MOLECULE
*****
 50 53 0 0 0
SMALL
GASTEIGER

@<TRIPOS>ATOM
     1 C         -0.383776   -1.350889   1.672907 C.3        1 UNL1     0.1889
     2 C         -0.489572   -0.966487   0.17258 C.3        1 UNL1     0.1342
     3 C         -1.924044   -0.906326   -0.374355 C.3        1 UNL1     0.1174
     4 C         -2.844242   -1.954273   0.256642 C.3        1 UNL1     0.1456
     5 C         -2.709081   -2.012289   1.789199 C.3        1 UNL1     0.2326
     6 O         -1.353963   -2.272457   2.148137 O.3        1 UNL1     -0.3076
     7 O         -3.260744   -0.863048   2.457206 O.3        1 UNL1     -0.4605
     8 C         -3.788682   -1.088823   3.715712 C.ar        1 UNL1     0.1310
     9 C         -4.6362   -2.147009   4.061043 C.ar        1 UNL1     0.0226
     10 C         -5.105969   -2.300153   5.370916 C.ar        1 UNL1     0.1343
     11 C         -4.720077   -1.411493   6.373519 C.ar        1 UNL1     0.1007
     12 C         -3.907129   -0.327375   6.032069 C.ar        1 UNL1     0.1389
     13 C         -3.437048   -0.172108   4.714364 C.ar        1 UNL1     0.0229
     14 C         -5.118795   -1.573958   7.790834 C.2        1 UNL1     0.1740
     15 C         -4.435284   -0.661363   8.766299 C.3        1 UNL1     0.0520
     16 C         -4.323955   0.720375   8.136725 C.3        1 UNL1     0.1322
     17 O         -3.554684   0.66678   6.915078 O.3        1 UNL1     -0.4828
     18 C         -5.66354   1.450111   8.011341 C.ar        1 UNL1     -0.0067
     19 C         -6.015435   2.045587   6.782605 C.ar        1 UNL1     -0.0516
     20 C         -7.211268   2.7609   6.64743 C.ar        1 UNL1     -0.0198
     21 C         -8.058309   2.893885   7.733093 C.ar        1 UNL1     0.1169
     22 C         -7.755276   2.290564   8.946771 C.ar        1 UNL1     -0.0198
     23 C         -6.568348   1.559615   9.077045 C.ar        1 UNL1     -0.0516
     24 O         -9.195789   3.629624   7.574263 O.3        1 UNL1     -0.5068
     25 O         -5.894233   -2.443448   8.179638 O.2        1 UNL1     -0.2917
     26 O         -5.930575   -3.352856   5.641887 O.3        1 UNL1     -0.5058
     27 O         -0.257621   -0.231766   2.535715 O.3        1 UNL1     -0.3648
     28 O         0.22313   -1.949193   -0.601403 O.3        1 UNL1     -0.3841
     29 O         -2.447977   0.419748   -0.278681 O.3        1 UNL1     -0.3863
     30 O         -2.525204   -3.253681   -0.286906 O.3        1 UNL1     -0.3829
     31 H         0.56199   -1.890821   1.791561 H        1 UNL1     0.0937
     32 H         0.0   0.0   0.0 H        1 UNL1     0.0671
     33 H         -1.88225   -1.126612   -1.450202 H        1 UNL1     0.0649
     34 H         -3.886695   -1.74378   -0.00677 H        1 UNL1     0.0683
     35 H         -3.289961   -2.898936   2.072599 H        1 UNL1     0.1085
     36 H         -4.927462   -2.90292   3.340011 H        1 UNL1     0.0691
     37 H         -2.806268   0.681034   4.474034 H        1 UNL1     0.0691
     38 H         -3.445484   -1.081216   8.974978 H        1 UNL1     0.0385
     39 H         -5.004267   -0.645341   9.70213 H        1 UNL1     0.0385
     40 H         -3.719292   1.337415   8.815078 H        1 UNL1     0.0789
     41 H         -5.363218   1.963348   5.918024 H        1 UNL1     0.0623
     42 H         -7.465743   3.225559   5.698037 H        1 UNL1     0.0654
     43 H         -8.418707   2.375703   9.799133 H        1 UNL1     0.0654
     44 H         -6.368485   1.09269   10.036671 H        1 UNL1     0.0623
     45 H         -8.943785   4.535701   7.332944 H        1 UNL1     0.2921
     46 H         -5.547356   -3.889057   6.353957 H        1 UNL1     0.2922
     47 H         0.502283   0.307487   2.275694 H        1 UNL1     0.2126
     48 H         1.154506   -1.913045   -0.309917 H        1 UNL1     0.2101
     49 H         -1.987604   1.002358   -0.903513 H        1 UNL1     0.2100
     50 H         -2.748989   -3.244787   -1.240612 H        1 UNL1     0.2102
@<TRIPOS>BOND
     1     1     2    1
     2     1     6    1
     3     2     3    1
     4     3     4    1
     5     3    29    1
     6     3    33    1
     7     4     5    1
     8     5     6    1
     9     5     7    1
    10     5    35    1
    11     7     8    1
    12     8     9   ar
    13     8    13   ar
    14     9    10   ar
    15     9    36    1
    16    10    11   ar
    17    10    26    1
    18    11    12   ar
    19    11    14    1
    20    12    13   ar
    21    12    17    1
    22    13    37    1
    23    14    15    1
    24    14    25    2
    25    15    16    1
    26    15    38    1
    27    15    39    1
    28    16    17    1
    29    16    18    1
    30    16    40    1
    31    18    19   ar
    32    18    23   ar
    33    19    20   ar
    34    19    41    1
    35    20    21   ar
    36    20    42    1
    37    21    22   ar
    38    21    24    1
    39    22    23   ar
    40    22    43    1
    41    23    44    1
    42    24    45    1
    43    26    46    1
    44    27    47    1
    45    28    48    1
    46    29    49    1
    47    30    50    1
    48     1    31    1
    49     1    27    1
    50     2    32    1
    51     2    28    1
    52     4    34    1
    53     4    30    1
