@<TRIPOS>MOLECULE
*****
 50 53 0 0 0
SMALL
GASTEIGER

@<TRIPOS>ATOM
     1 C         -1.576558   -0.933159   1.18932 C.3        1 UNL1     0.1889
     2 C         -1.094933   0.022418   0.064665 C.3        1 UNL1     0.1342
     3 C         -1.558074   1.479182   0.218952 C.3        1 UNL1     0.1174
     4 C         -2.955328   1.595849   0.833107 C.3        1 UNL1     0.1456
     5 C         -3.132965   0.697419   2.070699 C.3        1 UNL1     0.2326
     6 O         -2.861249   -0.659896   1.729037 O.3        1 UNL1     -0.3076
     7 O         -2.393389   1.150804   3.219085 O.3        1 UNL1     -0.4605
     8 C         -3.074156   1.984354   4.088153 C.ar        1 UNL1     0.1310
     9 C         -3.861213   3.07823   3.712287 C.ar        1 UNL1     0.0226
     10 C         -4.52679   3.853745   4.669098 C.ar        1 UNL1     0.1343
     11 C         -4.440547   3.53946   6.024689 C.ar        1 UNL1     0.1007
     12 C         -3.624637   2.474378   6.415424 C.ar        1 UNL1     0.1389
     13 C         -2.953387   1.696371   5.453363 C.ar        1 UNL1     0.0229
     14 C         -5.189693   4.273404   7.070758 C.2        1 UNL1     0.1740
     15 C         -5.155907   3.664331   8.441684 C.3        1 UNL1     0.0520
     16 C         -3.748899   3.145032   8.703629 C.3        1 UNL1     0.1322
     17 O         -3.381879   2.144225   7.728563 O.3        1 UNL1     -0.4828
     18 C         -2.709896   4.251934   8.898465 C.ar        1 UNL1     -0.0067
     19 C         -1.386411   3.906907   9.241333 C.ar        1 UNL1     -0.0516
     20 C         -0.423282   4.896151   9.473154 C.ar        1 UNL1     -0.0198
     21 C         -0.772137   6.23108   9.372698 C.ar        1 UNL1     0.1169
     22 C         -2.05882   6.601764   9.004078 C.ar        1 UNL1     -0.0198
     23 C         -3.017397   5.612455   8.754171 C.ar        1 UNL1     -0.0516
     24 O         0.182807   7.166825   9.642633 O.3        1 UNL1     -0.5068
     25 O         -5.867958   5.271488   6.842135 O.2        1 UNL1     -0.2917
     26 O         -5.277568   4.907807   4.236812 O.3        1 UNL1     -0.5058
     27 O         -0.612202   -1.136593   2.209819 O.3        1 UNL1     -0.3648
     28 O         -1.60579   -0.458646   -1.192438 O.3        1 UNL1     -0.3841
     29 O         -0.579782   2.250857   0.918662 O.3        1 UNL1     -0.3863
     30 O         -3.939993   1.223776   -0.155673 O.3        1 UNL1     -0.3829
     31 H         -1.696283   -1.920789   0.7307 H        1 UNL1     0.0937
     32 H         0.0   0.0   0.0 H        1 UNL1     0.0671
     33 H         -1.614533   1.921293   -0.785573 H        1 UNL1     0.0649
     34 H         -3.156458   2.636677   1.109918 H        1 UNL1     0.0683
     35 H         -4.205569   0.761882   2.292609 H        1 UNL1     0.1085
     36 H         -4.013412   3.340204   2.670977 H        1 UNL1     0.0691
     37 H         -2.323403   0.873204   5.783528 H        1 UNL1     0.0691
     38 H         -5.887469   2.849468   8.460174 H        1 UNL1     0.0385
     39 H         -5.463086   4.416508   9.176293 H        1 UNL1     0.0385
     40 H         -3.77686   2.601516   9.65774 H        1 UNL1     0.0789
     41 H         -1.0898   2.866323   9.335446 H        1 UNL1     0.0623
     42 H         0.590901   4.61755   9.748518 H        1 UNL1     0.0654
     43 H         -2.338814   7.643995   8.907815 H        1 UNL1     0.0654
     44 H         -4.009982   5.937883   8.457999 H        1 UNL1     0.0623
     45 H         0.575273   6.963937   10.507227 H        1 UNL1     0.2921
     46 H         -4.973012   5.721014   4.669654 H        1 UNL1     0.2922
     47 H         -0.018813   -1.861993   1.969936 H        1 UNL1     0.2126
     48 H         -1.678797   0.317828   -1.780222 H        1 UNL1     0.2101
     49 H         -0.70011   2.146513   1.875964 H        1 UNL1     0.2100
     50 H         -4.724753   0.875861   0.316365 H        1 UNL1     0.2102
@<TRIPOS>BOND
     1     1     2    1
     2     1     6    1
     3     2     3    1
     4     3     4    1
     5     3    29    1
     6     3    33    1
     7     4     5    1
     8     5     6    1
     9     5     7    1
    10     5    35    1
    11     7     8    1
    12     8     9   ar
    13     8    13   ar
    14     9    10   ar
    15     9    36    1
    16    10    11   ar
    17    10    26    1
    18    11    12   ar
    19    11    14    1
    20    12    13   ar
    21    12    17    1
    22    13    37    1
    23    14    15    1
    24    14    25    2
    25    15    16    1
    26    15    38    1
    27    15    39    1
    28    16    17    1
    29    16    18    1
    30    16    40    1
    31    18    19   ar
    32    18    23   ar
    33    19    20   ar
    34    19    41    1
    35    20    21   ar
    36    20    42    1
    37    21    22   ar
    38    21    24    1
    39    22    23   ar
    40    22    43    1
    41    23    44    1
    42    24    45    1
    43    26    46    1
    44    27    47    1
    45    28    48    1
    46    29    49    1
    47    30    50    1
    48     1    31    1
    49     1    27    1
    50     2    32    1
    51     2    28    1
    52     4    34    1
    53     4    30    1
