@<TRIPOS>MOLECULE
*****
 50 53 0 0 0
SMALL
GASTEIGER

@<TRIPOS>ATOM
     1 C         1.209516   0.42554   1.768273 C.3        1 UNL1     0.1889
     2 C         -0.149975   0.373404   1.020607 C.3        1 UNL1     0.1342
     3 C         -0.899683   1.713032   0.95896 C.3        1 UNL1     0.1174
     4 C         -0.703506   2.561419   2.217877 C.3        1 UNL1     0.1456
     5 C         0.770276   2.63339   2.657366 C.3        1 UNL1     0.2326
     6 O         1.278792   1.318483   2.870203 O.3        1 UNL1     -0.3076
     7 O         1.592569   3.422743   1.778686 O.3        1 UNL1     -0.4605
     8 C         1.12544   4.692142   1.488958 C.ar        1 UNL1     0.1310
     9 C         -0.078334   4.983739   0.83842 C.ar        1 UNL1     0.0226
     10 C         -0.473077   6.30652   0.605332 C.ar        1 UNL1     0.1343
     11 C         0.31584   7.371216   1.038777 C.ar        1 UNL1     0.1007
     12 C         1.539662   7.092321   1.652991 C.ar        1 UNL1     0.1389
     13 C         1.9376   5.762169   1.884884 C.ar        1 UNL1     0.0229
     14 C         -0.092723   8.787602   0.893588 C.2        1 UNL1     0.1740
     15 C         0.76514   9.78767   1.61156 C.3        1 UNL1     0.0520
     16 C         2.221641   9.372141   1.456974 C.3        1 UNL1     0.1322
     17 O         2.443649   8.061256   2.022096 O.3        1 UNL1     -0.4828
     18 C         2.766346   9.551728   0.037901 C.ar        1 UNL1     -0.0067
     19 C         4.146236   9.386312   -0.200333 C.ar        1 UNL1     -0.0516
     20 C         4.684257   9.589635   -1.476717 C.ar        1 UNL1     -0.0198
     21 C         3.855915   9.964915   -2.519234 C.ar        1 UNL1     0.1169
     22 C         2.487935   10.103047   -2.323303 C.ar        1 UNL1     -0.0198
     23 C         1.946926   9.881804   -1.051133 C.ar        1 UNL1     -0.0516
     24 O         4.421293   10.190894   -3.739759 O.3        1 UNL1     -0.5068
     25 O         -1.10726   9.141022   0.29836 O.2        1 UNL1     -0.2917
     26 O         -1.658117   6.523051   -0.035276 O.3        1 UNL1     -0.5058
     27 O         2.324822   0.57284   0.903876 O.3        1 UNL1     -0.3648
     28 O         -1.006402   -0.566085   1.696328 O.3        1 UNL1     -0.3841
     29 O         -0.577276   2.419785   -0.240493 O.3        1 UNL1     -0.3863
     30 O         -1.482103   1.997209   3.295441 O.3        1 UNL1     -0.3829
     31 H         1.352142   -0.558942   2.227111 H        1 UNL1     0.0937
     32 H         0.0   0.0   -0.0 H        1 UNL1     0.0671
     33 H         -1.974084   1.493094   0.888183 H        1 UNL1     0.0649
     34 H         -1.080053   3.576101   2.047486 H        1 UNL1     0.0683
     35 H         0.730085   3.122538   3.63869 H        1 UNL1     0.1085
     36 H         -0.762184   4.201752   0.527027 H        1 UNL1     0.0691
     37 H         2.895554   5.571693   2.363983 H        1 UNL1     0.0691
     38 H         0.463874   9.787048   2.664539 H        1 UNL1     0.0385
     39 H         0.573374   10.7851   1.201513 H        1 UNL1     0.0385
     40 H         2.819115   10.046679   2.085102 H        1 UNL1     0.0789
     41 H         4.818854   9.101086   0.603335 H        1 UNL1     0.0623
     42 H         5.751722   9.470556   -1.645093 H        1 UNL1     0.0654
     43 H         1.827976   10.381918   -3.136073 H        1 UNL1     0.0654
     44 H         0.87252   9.988357   -0.936489 H        1 UNL1     0.0623
     45 H         5.369288   10.357693   -3.612476 H        1 UNL1     0.2921
     46 H         -2.147956   7.226339   0.419537 H        1 UNL1     0.2922
     47 H         3.143258   0.361416   1.374324 H        1 UNL1     0.2126
     48 H         -1.451655   -1.088458   1.001627 H        1 UNL1     0.2101
     49 H         -0.243132   1.800474   -0.908771 H        1 UNL1     0.2100
     50 H         -2.025366   1.270311   2.926393 H        1 UNL1     0.2102
@<TRIPOS>BOND
     1     1     2    1
     2     1     6    1
     3     2     3    1
     4     3     4    1
     5     3    29    1
     6     3    33    1
     7     4     5    1
     8     5     6    1
     9     5     7    1
    10     5    35    1
    11     7     8    1
    12     8     9   ar
    13     8    13   ar
    14     9    10   ar
    15     9    36    1
    16    10    11   ar
    17    10    26    1
    18    11    12   ar
    19    11    14    1
    20    12    13   ar
    21    12    17    1
    22    13    37    1
    23    14    15    1
    24    14    25    2
    25    15    16    1
    26    15    38    1
    27    15    39    1
    28    16    17    1
    29    16    18    1
    30    16    40    1
    31    18    19   ar
    32    18    23   ar
    33    19    20   ar
    34    19    41    1
    35    20    21   ar
    36    20    42    1
    37    21    22   ar
    38    21    24    1
    39    22    23   ar
    40    22    43    1
    41    23    44    1
    42    24    45    1
    43    26    46    1
    44    27    47    1
    45    28    48    1
    46    29    49    1
    47    30    50    1
    48     1    31    1
    49     1    27    1
    50     2    32    1
    51     2    28    1
    52     4    34    1
    53     4    30    1
