@<TRIPOS>MOLECULE
*****
 50 53 0 0 0
SMALL
GASTEIGER

@<TRIPOS>ATOM
     1 C         -2.083443   -0.642746   0.130185 C.3        1 UNL1     0.1889
     2 C         -0.698601   -0.352579   0.7689 C.3        1 UNL1     0.1342
     3 C         -0.070815   -1.544405   1.50775 C.3        1 UNL1     0.1174
     4 C         -1.110947   -2.426294   2.203102 C.3        1 UNL1     0.1456
     5 C         -2.310405   -2.752386   1.294626 C.3        1 UNL1     0.2326
     6 O         -2.918436   -1.54538   0.84042 O.3        1 UNL1     -0.3076
     7 O         -1.989599   -3.66137   0.225911 O.3        1 UNL1     -0.4605
     8 C         -1.778232   -4.978216   0.593019 C.ar        1 UNL1     0.1310
     9 C         -0.580313   -5.682438   0.430661 C.ar        1 UNL1     0.0226
     10 C         -0.459795   -7.012234   0.851401 C.ar        1 UNL1     0.1343
     11 C         -1.528041   -7.663204   1.466972 C.ar        1 UNL1     0.1007
     12 C         -2.742077   -6.983585   1.597429 C.ar        1 UNL1     0.1389
     13 C         -2.863811   -5.647346   1.171899 C.ar        1 UNL1     0.0229
     14 C         -1.429767   -9.039336   2.00619 C.2        1 UNL1     0.1740
     15 C         -2.596643   -9.498678   2.830176 C.3        1 UNL1     0.0520
     16 C         -3.876668   -9.004936   2.170092 C.3        1 UNL1     0.1322
     17 O         -3.888723   -7.56256   2.089627 O.3        1 UNL1     -0.4828
     18 C         -4.206091   -9.71639   0.855543 C.ar        1 UNL1     -0.0067
     19 C         -4.588775   -11.073296   0.879463 C.ar        1 UNL1     -0.0516
     20 C         -4.850922   -11.766743   -0.308128 C.ar        1 UNL1     -0.0198
     21 C         -4.727054   -11.118021   -1.523712 C.ar        1 UNL1     0.1169
     22 C         -4.384537   -9.773185   -1.577908 C.ar        1 UNL1     -0.0198
     23 C         -4.140289   -9.074561   -0.389495 C.ar        1 UNL1     -0.0516
     24 O         -4.953561   -11.835886   -2.661149 O.3        1 UNL1     -0.5068
     25 O         -0.436596   -9.749142   1.871014 O.2        1 UNL1     -0.2917
     26 O         0.735352   -7.642926   0.663155 O.3        1 UNL1     -0.5058
     27 O         -2.012853   -0.969079   -1.248695 O.3        1 UNL1     -0.3648
     28 O         -0.851715   0.712173   1.725751 O.3        1 UNL1     -0.3841
     29 O         0.789443   -2.283737   0.638568 O.3        1 UNL1     -0.3863
     30 O         -1.593578   -1.748574   3.383549 O.3        1 UNL1     -0.3829
     31 H         -2.643337   0.298487   0.156208 H        1 UNL1     0.0937
     32 H         0.0   0.0   0.0 H        1 UNL1     0.0671
     33 H         0.583598   -1.144147   2.294678 H        1 UNL1     0.0649
     34 H         -0.645938   -3.36035   2.537326 H        1 UNL1     0.0683
     35 H         -3.028177   -3.237306   1.968076 H        1 UNL1     0.1085
     36 H         0.303415   -5.215065   0.010294 H        1 UNL1     0.0691
     37 H         -3.820077   -5.140833   1.283677 H        1 UNL1     0.0691
     38 H         -2.480828   -9.074989   3.833471 H        1 UNL1     0.0385
     39 H         -2.56882   -10.590409   2.914612 H        1 UNL1     0.0385
     40 H         -4.705548   -9.249015   2.848254 H        1 UNL1     0.0789
     41 H         -4.684186   -11.607483   1.82031 H        1 UNL1     0.0623
     42 H         -5.133649   -12.816085   -0.277176 H        1 UNL1     0.0654
     43 H         -4.299344   -9.251448   -2.523658 H        1 UNL1     0.0654
     44 H         -3.885237   -8.022165   -0.468583 H        1 UNL1     0.0623
     45 H         -4.448763   -12.663518   -2.607105 H        1 UNL1     0.2921
     46 H         1.280739   -7.126081   0.049286 H        1 UNL1     0.2922
     47 H         -2.453981   -0.289031   -1.776711 H        1 UNL1     0.2126
     48 H         -1.798345   0.952214   1.727988 H        1 UNL1     0.2101
     49 H         0.596269   -2.059755   -0.285721 H        1 UNL1     0.2100
     50 H         -0.815857   -1.45842   3.903811 H        1 UNL1     0.2102
@<TRIPOS>BOND
     1     1     2    1
     2     1     6    1
     3     2     3    1
     4     3     4    1
     5     3    29    1
     6     3    33    1
     7     4     5    1
     8     5     6    1
     9     5     7    1
    10     5    35    1
    11     7     8    1
    12     8     9   ar
    13     8    13   ar
    14     9    10   ar
    15     9    36    1
    16    10    11   ar
    17    10    26    1
    18    11    12   ar
    19    11    14    1
    20    12    13   ar
    21    12    17    1
    22    13    37    1
    23    14    15    1
    24    14    25    2
    25    15    16    1
    26    15    38    1
    27    15    39    1
    28    16    17    1
    29    16    18    1
    30    16    40    1
    31    18    19   ar
    32    18    23   ar
    33    19    20   ar
    34    19    41    1
    35    20    21   ar
    36    20    42    1
    37    21    22   ar
    38    21    24    1
    39    22    23   ar
    40    22    43    1
    41    23    44    1
    42    24    45    1
    43    26    46    1
    44    27    47    1
    45    28    48    1
    46    29    49    1
    47    30    50    1
    48     1    31    1
    49     1    27    1
    50     2    32    1
    51     2    28    1
    52     4    34    1
    53     4    30    1
