@<TRIPOS>MOLECULE
*****
 50 53 0 0 0
SMALL
GASTEIGER

@<TRIPOS>ATOM
     1 C         -0.344282   -1.337374   1.692248 C.3        1 UNL1     0.1889
     2 C         -0.468782   -0.97386   0.188155 C.3        1 UNL1     0.1342
     3 C         -1.908147   -0.949199   -0.348583 C.3        1 UNL1     0.1174
     4 C         -2.802457   -2.007403   0.302208 C.3        1 UNL1     0.1456
     5 C         -2.654918   -2.043634   1.834293 C.3        1 UNL1     0.2326
     6 O         -1.292252   -2.272172   2.186114 O.3        1 UNL1     -0.3076
     7 O         -3.224637   -0.89743   2.492289 O.3        1 UNL1     -0.4605
     8 C         -3.745907   -1.119758   3.754183 C.ar        1 UNL1     0.1310
     9 C         -4.574508   -2.188769   4.111863 C.ar        1 UNL1     0.0226
     10 C         -5.038743   -2.336983   5.424273 C.ar        1 UNL1     0.1343
     11 C         -4.665874   -1.432054   6.417204 C.ar        1 UNL1     0.1007
     12 C         -3.872272   -0.337666   6.063232 C.ar        1 UNL1     0.1389
     13 C         -3.407777   -0.1874   4.742968 C.ar        1 UNL1     0.0229
     14 C         -5.058676   -1.58732   7.836976 C.2        1 UNL1     0.1740
     15 C         -4.388699   -0.653659   8.801837 C.3        1 UNL1     0.0520
     16 C         -4.302314   0.723508   8.158482 C.3        1 UNL1     0.1322
     17 O         -3.534904   0.670992   6.935619 O.3        1 UNL1     -0.4828
     18 C         -5.654415   1.429061   8.02909 C.ar        1 UNL1     -0.0067
     19 C         -6.011536   2.021735   6.800507 C.ar        1 UNL1     -0.0516
     20 C         -7.219603   2.715519   6.661942 C.ar        1 UNL1     -0.0198
     21 C         -8.073854   2.829742   7.744086 C.ar        1 UNL1     0.1169
     22 C         -7.765374   2.228379   8.957363 C.ar        1 UNL1     -0.0198
     23 C         -6.565904   1.518813   9.09094 C.ar        1 UNL1     -0.0516
     24 O         -9.223844   3.545086   7.582195 O.3        1 UNL1     -0.5068
     25 O         -5.81833   -2.466015   8.236107 O.2        1 UNL1     -0.2917
     26 O         -5.844691   -3.400855   5.707489 O.3        1 UNL1     -0.5058
     27 O         -0.234304   -0.205306   2.540253 O.3        1 UNL1     -0.3648
     28 O         0.257817   -1.951674   -0.579074 O.3        1 UNL1     -0.3841
     29 O         -2.457893   0.367222   -0.265245 O.3        1 UNL1     -0.3863
     30 O         -2.461381   -3.306834   -0.227732 O.3        1 UNL1     -0.3829
     31 H         0.612983   -1.856771   1.810353 H        1 UNL1     0.0937
     32 H         0.0   0.0   0.0 H        1 UNL1     0.0671
     33 H         -1.869831   -1.181973   -1.421928 H        1 UNL1     0.0649
     34 H         -3.850832   -1.821087   0.044143 H        1 UNL1     0.0683
     35 H         -3.215777   -2.938122   2.132967 H        1 UNL1     0.1085
     36 H         -4.85441   -2.956592   3.398965 H        1 UNL1     0.0691
     37 H         -2.792158   0.67395   4.492803 H        1 UNL1     0.0691
     38 H         -3.391434   -1.054524   9.012302 H        1 UNL1     0.0385
     39 H         -4.955833   -0.638113   9.738798 H        1 UNL1     0.0385
     40 H         -3.706782   1.357403   8.829331 H        1 UNL1     0.0789
     41 H         -5.354005   1.954027   5.938696 H        1 UNL1     0.0623
     42 H         -7.478202   3.178331   5.712762 H        1 UNL1     0.0654
     43 H         -8.434115   2.298819   9.806913 H        1 UNL1     0.0654
     44 H         -6.361911   1.052709   10.050096 H        1 UNL1     0.0623
     45 H         -8.9872   4.458405   7.352927 H        1 UNL1     0.2921
     46 H         -5.451527   -3.922641   6.424827 H        1 UNL1     0.2922
     47 H         0.510165   0.347905   2.265326 H        1 UNL1     0.2126
     48 H         1.193683   -1.879597   -0.30946 H        1 UNL1     0.2101
     49 H         -2.019755   0.949036   -0.906589 H        1 UNL1     0.2100
     50 H         -2.697523   -3.316187   -1.178448 H        1 UNL1     0.2102
@<TRIPOS>BOND
     1     1     2    1
     2     1     6    1
     3     2     3    1
     4     3     4    1
     5     3    29    1
     6     3    33    1
     7     4     5    1
     8     5     6    1
     9     5     7    1
    10     5    35    1
    11     7     8    1
    12     8     9   ar
    13     8    13   ar
    14     9    10   ar
    15     9    36    1
    16    10    11   ar
    17    10    26    1
    18    11    12   ar
    19    11    14    1
    20    12    13   ar
    21    12    17    1
    22    13    37    1
    23    14    15    1
    24    14    25    2
    25    15    16    1
    26    15    38    1
    27    15    39    1
    28    16    17    1
    29    16    18    1
    30    16    40    1
    31    18    19   ar
    32    18    23   ar
    33    19    20   ar
    34    19    41    1
    35    20    21   ar
    36    20    42    1
    37    21    22   ar
    38    21    24    1
    39    22    23   ar
    40    22    43    1
    41    23    44    1
    42    24    45    1
    43    26    46    1
    44    27    47    1
    45    28    48    1
    46    29    49    1
    47    30    50    1
    48     1    31    1
    49     1    27    1
    50     2    32    1
    51     2    28    1
    52     4    34    1
    53     4    30    1
