@<TRIPOS>MOLECULE
*****
 50 53 0 0 0
SMALL
GASTEIGER

@<TRIPOS>ATOM
     1 C         -0.389233   -1.380651   1.647151 C.3        1 UNL1     0.1889
     2 C         -0.491706   -0.968546   0.153963 C.3        1 UNL1     0.1342
     3 C         -1.925114   -0.895576   -0.394201 C.3        1 UNL1     0.1174
     4 C         -2.848392   -1.953158   0.215876 C.3        1 UNL1     0.1456
     5 C         -2.715989   -2.039581   1.747334 C.3        1 UNL1     0.2326
     6 O         -1.36199   -2.308918   2.103724 O.3        1 UNL1     -0.3076
     7 O         -3.266619   -0.901742   2.435411 O.3        1 UNL1     -0.4605
     8 C         -3.807779   -1.15171   3.683686 C.ar        1 UNL1     0.1310
     9 C         -4.662425   -2.213673   3.998515 C.ar        1 UNL1     0.0226
     10 C         -5.145669   -2.392315   5.300231 C.ar        1 UNL1     0.1343
     11 C         -4.766562   -1.526199   6.324906 C.ar        1 UNL1     0.1007
     12 C         -3.946432   -0.438262   6.01416 C.ar        1 UNL1     0.1389
     13 C         -3.462789   -0.257334   4.704662 C.ar        1 UNL1     0.0229
     14 C         -5.179855   -1.716667   7.734539 C.2        1 UNL1     0.1740
     15 C         -4.502792   -0.827172   8.735506 C.3        1 UNL1     0.0520
     16 C         -4.380335   0.566958   8.136037 C.3        1 UNL1     0.1322
     17 O         -3.599212   0.535945   6.921148 O.3        1 UNL1     -0.4828
     18 C         -5.716014   1.304175   8.012771 C.ar        1 UNL1     -0.0067
     19 C         -5.723921   2.667537   7.653054 C.ar        1 UNL1     -0.0516
     20 C         -6.92457   3.383576   7.577607 C.ar        1 UNL1     -0.0198
     21 C         -8.120598   2.750985   7.866005 C.ar        1 UNL1     0.1169
     22 C         -8.148251   1.400902   8.19058 C.ar        1 UNL1     -0.0198
     23 C         -6.949475   0.680012   8.248117 C.ar        1 UNL1     -0.0516
     24 O         -9.266035   3.490011   7.818934 O.3        1 UNL1     -0.5068
     25 O         -5.962184   -2.591151   8.097476 O.2        1 UNL1     -0.2917
     26 O         -5.976648   -3.447332   5.541058 O.3        1 UNL1     -0.5058
     27 O         -0.262441   -0.277814   2.530588 O.3        1 UNL1     -0.3648
     28 O         0.220462   -1.938243   -0.636739 O.3        1 UNL1     -0.3841
     29 O         -2.44669   0.429527   -0.275063 O.3        1 UNL1     -0.3863
     30 O         -2.530886   -3.242974   -0.350917 O.3        1 UNL1     -0.3829
     31 H         0.555299   -1.924498   1.757463 H        1 UNL1     0.0937
     32 H         0.0   0.0   0.0 H        1 UNL1     0.0671
     33 H         -1.88188   -1.096139   -1.473842 H        1 UNL1     0.0649
     34 H         -3.889986   -1.735847   -0.045388 H        1 UNL1     0.0683
     35 H         -3.299041   -2.93016   2.013411 H        1 UNL1     0.1085
     36 H         -4.949221   -2.953294   3.259035 H        1 UNL1     0.0691
     37 H         -2.826637   0.598256   4.488398 H        1 UNL1     0.0691
     38 H         -3.516602   -1.254998   8.94508 H        1 UNL1     0.0385
     39 H         -5.080945   -0.82852   9.665837 H        1 UNL1     0.0385
     40 H         -3.780225   1.167452   8.833027 H        1 UNL1     0.0789
     41 H         -4.797579   3.189221   7.430823 H        1 UNL1     0.0623
     42 H         -6.916449   4.437475   7.310692 H        1 UNL1     0.0654
     43 H         -9.080707   0.891931   8.403621 H        1 UNL1     0.0654
     44 H         -7.009281   -0.375695   8.494595 H        1 UNL1     0.0623
     45 H         -9.02889   4.428457   7.89508 H        1 UNL1     0.2921
     46 H         -5.701463   -3.896465   6.355898 H        1 UNL1     0.2922
     47 H         -1.13648   0.042054   2.794408 H        1 UNL1     0.2126
     48 H         -0.329239   -2.114984   -1.424345 H        1 UNL1     0.2101
     49 H         -3.00228   0.495443   0.517886 H        1 UNL1     0.2100
     50 H         -2.77932   -3.225374   -1.298378 H        1 UNL1     0.2102
@<TRIPOS>BOND
     1     1     2    1
     2     1     6    1
     3     2     3    1
     4     3     4    1
     5     3    29    1
     6     3    33    1
     7     4     5    1
     8     5     6    1
     9     5     7    1
    10     5    35    1
    11     7     8    1
    12     8     9   ar
    13     8    13   ar
    14     9    10   ar
    15     9    36    1
    16    10    11   ar
    17    10    26    1
    18    11    12   ar
    19    11    14    1
    20    12    13   ar
    21    12    17    1
    22    13    37    1
    23    14    15    1
    24    14    25    2
    25    15    16    1
    26    15    38    1
    27    15    39    1
    28    16    17    1
    29    16    18    1
    30    16    40    1
    31    18    19   ar
    32    18    23   ar
    33    19    20   ar
    34    19    41    1
    35    20    21   ar
    36    20    42    1
    37    21    22   ar
    38    21    24    1
    39    22    23   ar
    40    22    43    1
    41    23    44    1
    42    24    45    1
    43    26    46    1
    44    27    47    1
    45    28    48    1
    46    29    49    1
    47    30    50    1
    48     1    31    1
    49     1    27    1
    50     2    32    1
    51     2    28    1
    52     4    34    1
    53     4    30    1
