@<TRIPOS>MOLECULE
*****
 50 53 0 0 0
SMALL
GASTEIGER

@<TRIPOS>ATOM
     1 C         -0.080992   1.252974   -1.787261 C.3        1 UNL1     0.1889
     2 C         0.36203   0.983625   -0.324004 C.3        1 UNL1     0.1342
     3 C         -0.09406   2.044277   0.689635 C.3        1 UNL1     0.1174
     4 C         -0.116642   3.457022   0.100773 C.3        1 UNL1     0.1456
     5 C         -0.793905   3.509813   -1.280854 C.3        1 UNL1     0.2326
     6 O         -0.137872   2.616913   -2.178194 O.3        1 UNL1     -0.3076
     7 O         -2.218775   3.314011   -1.228631 O.3        1 UNL1     -0.4605
     8 C         -2.992791   4.374669   -1.663869 C.ar        1 UNL1     0.1310
     9 C         -4.383211   4.353814   -1.817492 C.ar        1 UNL1     0.0226
     10 C         -5.08072   5.488183   -2.249451 C.ar        1 UNL1     0.1343
     11 C         -4.406643   6.679222   -2.515697 C.ar        1 UNL1     0.1007
     12 C         -3.013744   6.700405   -2.405391 C.ar        1 UNL1     0.1389
     13 C         -2.312358   5.558901   -1.973584 C.ar        1 UNL1     0.0229
     14 C         -5.102313   7.931053   -2.894004 C.2        1 UNL1     0.1740
     15 C         -4.248607   9.16468   -2.924016 C.3        1 UNL1     0.0520
     16 C         -2.900261   8.802831   -3.531458 C.3        1 UNL1     0.1322
     17 O         -2.240275   7.7858   -2.745877 O.3        1 UNL1     -0.4828
     18 C         -2.96006   8.506182   -5.031841 C.ar        1 UNL1     -0.0067
     19 C         -2.019662   7.623196   -5.601226 C.ar        1 UNL1     -0.0516
     20 C         -2.01661   7.366874   -6.977545 C.ar        1 UNL1     -0.0198
     21 C         -2.942009   7.991559   -7.794387 C.ar        1 UNL1     0.1169
     22 C         -3.901874   8.840292   -7.258522 C.ar        1 UNL1     -0.0198
     23 C         -3.916837   9.082484   -5.879691 C.ar        1 UNL1     -0.0516
     24 O         -2.884446   7.746818   -9.13498 O.3        1 UNL1     -0.5068
     25 O         -6.31196   7.997827   -3.095946 O.2        1 UNL1     -0.2917
     26 O         -6.436106   5.4016   -2.379899 O.3        1 UNL1     -0.5058
     27 O         -1.256601   0.551792   -2.160188 O.3        1 UNL1     -0.3648
     28 O         1.800558   0.942671   -0.283176 O.3        1 UNL1     -0.3841
     29 O         -1.338491   1.673426   1.286287 O.3        1 UNL1     -0.3863
     30 O         1.238899   3.938241   -0.028164 O.3        1 UNL1     -0.3829
     31 H         0.698965   0.834008   -2.432407 H        1 UNL1     0.0937
     32 H         0.0   0.0   0.0 H        1 UNL1     0.0671
     33 H         0.632895   2.055057   1.513734 H        1 UNL1     0.0649
     34 H         -0.635166   4.138734   0.784003 H        1 UNL1     0.0683
     35 H         -0.589403   4.527274   -1.636987 H        1 UNL1     0.1085
     36 H         -4.970788   3.475664   -1.573102 H        1 UNL1     0.0691
     37 H         -1.227989   5.600934   -1.896958 H        1 UNL1     0.0691
     38 H         -4.13588   9.514599   -1.89233 H        1 UNL1     0.0385
     39 H         -4.764246   9.944209   -3.495182 H        1 UNL1     0.0385
     40 H         -2.254433   9.686119   -3.435397 H        1 UNL1     0.0789
     41 H         -1.277133   7.127442   -4.982737 H        1 UNL1     0.0623
     42 H         -1.278804   6.693205   -7.406291 H        1 UNL1     0.0654
     43 H         -4.640687   9.323037   -7.887031 H        1 UNL1     0.0654
     44 H         -4.687472   9.74283   -5.493803 H        1 UNL1     0.0623
     45 H         -3.595435   7.126648   -9.364327 H        1 UNL1     0.2921
     46 H         -6.759478   6.152611   -2.902227 H        1 UNL1     0.2922
     47 H         -1.95845   0.706696   -1.512675 H        1 UNL1     0.2126
     48 H         2.112765   1.835861   -0.524981 H        1 UNL1     0.2101
     49 H         -1.190339   1.36655   2.194952 H        1 UNL1     0.2100
     50 H         1.830011   3.297904   0.41935 H        1 UNL1     0.2102
@<TRIPOS>BOND
     1     1     2    1
     2     1     6    1
     3     2     3    1
     4     3     4    1
     5     3    29    1
     6     3    33    1
     7     4     5    1
     8     5     6    1
     9     5     7    1
    10     5    35    1
    11     7     8    1
    12     8     9   ar
    13     8    13   ar
    14     9    10   ar
    15     9    36    1
    16    10    11   ar
    17    10    26    1
    18    11    12   ar
    19    11    14    1
    20    12    13   ar
    21    12    17    1
    22    13    37    1
    23    14    15    1
    24    14    25    2
    25    15    16    1
    26    15    38    1
    27    15    39    1
    28    16    17    1
    29    16    18    1
    30    16    40    1
    31    18    19   ar
    32    18    23   ar
    33    19    20   ar
    34    19    41    1
    35    20    21   ar
    36    20    42    1
    37    21    22   ar
    38    21    24    1
    39    22    23   ar
    40    22    43    1
    41    23    44    1
    42    24    45    1
    43    26    46    1
    44    27    47    1
    45    28    48    1
    46    29    49    1
    47    30    50    1
    48     1    31    1
    49     1    27    1
    50     2    32    1
    51     2    28    1
    52     4    34    1
    53     4    30    1
