@<TRIPOS>MOLECULE
*****
 50 53 0 0 0
SMALL
GASTEIGER

@<TRIPOS>ATOM
     1 C         -0.964829   0.818889   -1.780261 C.3        1 UNL1     0.1889
     2 C         -0.748592   0.763967   -0.243978 C.3        1 UNL1     0.1342
     3 C         -2.021691   0.497195   0.573651 C.3        1 UNL1     0.1174
     4 C         -3.268084   1.136895   -0.043119 C.3        1 UNL1     0.1456
     5 C         -3.374086   0.882283   -1.557814 C.3        1 UNL1     0.2326
     6 O         -2.202942   1.361973   -2.214464 O.3        1 UNL1     -0.3076
     7 O         -3.689757   -0.482267   -1.888989 O.3        1 UNL1     -0.4605
     8 C         -5.021784   -0.839587   -1.781496 C.ar        1 UNL1     0.1310
     9 C         -6.044594   -0.017763   -1.295937 C.ar        1 UNL1     0.0226
     10 C         -7.3696   -0.466509   -1.242199 C.ar        1 UNL1     0.1343
     11 C         -7.708022   -1.740843   -1.695394 C.ar        1 UNL1     0.1007
     12 C         -6.689129   -2.58537   -2.144185 C.ar        1 UNL1     0.1389
     13 C         -5.356528   -2.134863   -2.195651 C.ar        1 UNL1     0.0229
     14 C         -9.103527   -2.235581   -1.739603 C.2        1 UNL1     0.1740
     15 C         -9.309002   -3.535555   -2.460294 C.3        1 UNL1     0.0520
     16 C         -8.157482   -4.467887   -2.109984 C.3        1 UNL1     0.1322
     17 O         -6.893527   -3.895101   -2.511735 O.3        1 UNL1     -0.4828
     18 C         -8.193437   -4.9762   -0.666707 C.ar        1 UNL1     -0.0067
     19 C         -7.814785   -6.306225   -0.391263 C.ar        1 UNL1     -0.0516
     20 C         -7.88127   -6.817095   0.910487 C.ar        1 UNL1     -0.0198
     21 C         -8.330674   -6.012098   1.941914 C.ar        1 UNL1     0.1169
     22 C         -8.678796   -4.688152   1.707784 C.ar        1 UNL1     -0.0198
     23 C         -8.59487   -4.171528   0.40928 C.ar        1 UNL1     -0.0516
     24 O         -8.417859   -6.555556   3.189894 O.3        1 UNL1     -0.5068
     25 O         -10.058921   -1.604749   -1.294902 O.2        1 UNL1     -0.2917
     26 O         -8.319809   0.38384   -0.756819 O.3        1 UNL1     -0.5058
     27 O         -0.670274   -0.403852   -2.436713 O.3        1 UNL1     -0.3648
     28 O         -0.21992   2.031547   0.187824 O.3        1 UNL1     -0.3841
     29 O         -2.181935   -0.901175   0.820664 O.3        1 UNL1     -0.3863
     30 O         -3.231942   2.562262   0.186474 O.3        1 UNL1     -0.3829
     31 H         -0.22395   1.522426   -2.175497 H        1 UNL1     0.0937
     32 H         0.0   0.0   0.0 H        1 UNL1     0.0671
     33 H         -1.886453   0.954738   1.563643 H        1 UNL1     0.0649
     34 H         -4.168075   0.755251   0.451618 H        1 UNL1     0.0683
     35 H         -4.204334   1.524889   -1.876599 H        1 UNL1     0.1085
     36 H         -5.855228   1.002592   -0.981079 H        1 UNL1     0.0691
     37 H         -4.581606   -2.812178   -2.548118 H        1 UNL1     0.0691
     38 H         -9.329633   -3.319431   -3.533789 H        1 UNL1     0.0385
     39 H         -10.281005   -3.953408   -2.176768 H        1 UNL1     0.0385
     40 H         -8.264359   -5.363845   -2.736368 H        1 UNL1     0.0789
     41 H         -7.467309   -6.96105   -1.185062 H        1 UNL1     0.0623
     42 H         -7.597807   -7.847924   1.108103 H        1 UNL1     0.0654
     43 H         -9.017725   -4.044543   2.510781 H        1 UNL1     0.0654
     44 H         -8.864699   -3.129861   0.264474 H        1 UNL1     0.0623
     45 H         -7.529244   -6.831965   3.4668 H        1 UNL1     0.2921
     46 H         -7.901822   1.217949   -0.490436 H        1 UNL1     0.2922
     47 H         -0.35106   -1.057703   -1.799184 H        1 UNL1     0.2126
     48 H         0.436563   1.838093   0.884486 H        1 UNL1     0.2101
     49 H         -3.032659   -1.063599   1.258478 H        1 UNL1     0.2100
     50 H         -2.389898   2.773264   0.640516 H        1 UNL1     0.2102
@<TRIPOS>BOND
     1     1     2    1
     2     1     6    1
     3     2     3    1
     4     3     4    1
     5     3    29    1
     6     3    33    1
     7     4     5    1
     8     5     6    1
     9     5     7    1
    10     5    35    1
    11     7     8    1
    12     8     9   ar
    13     8    13   ar
    14     9    10   ar
    15     9    36    1
    16    10    11   ar
    17    10    26    1
    18    11    12   ar
    19    11    14    1
    20    12    13   ar
    21    12    17    1
    22    13    37    1
    23    14    15    1
    24    14    25    2
    25    15    16    1
    26    15    38    1
    27    15    39    1
    28    16    17    1
    29    16    18    1
    30    16    40    1
    31    18    19   ar
    32    18    23   ar
    33    19    20   ar
    34    19    41    1
    35    20    21   ar
    36    20    42    1
    37    21    22   ar
    38    21    24    1
    39    22    23   ar
    40    22    43    1
    41    23    44    1
    42    24    45    1
    43    26    46    1
    44    27    47    1
    45    28    48    1
    46    29    49    1
    47    30    50    1
    48     1    31    1
    49     1    27    1
    50     2    32    1
    51     2    28    1
    52     4    34    1
    53     4    30    1
