@<TRIPOS>MOLECULE
*****
 50 53 0 0 0
SMALL
GASTEIGER

@<TRIPOS>ATOM
     1 C         0.1892   -1.749986   1.293274 C.3        1 UNL1     0.1889
     2 C         -0.345887   -1.040922   0.020148 C.3        1 UNL1     0.1342
     3 C         -1.874524   -1.064051   -0.132167 C.3        1 UNL1     0.1174
     4 C         -2.504229   -2.354983   0.397063 C.3        1 UNL1     0.1456
     5 C         -1.958568   -2.753914   1.780346 C.3        1 UNL1     0.2326
     6 O         -0.54046   -2.889979   1.7227 O.3        1 UNL1     -0.3076
     7 O         -2.401368   -1.889374   2.842335 O.3        1 UNL1     -0.4605
     8 C         -3.770714   -1.78652   3.00919 C.ar        1 UNL1     0.1310
     9 C         -4.700805   -1.602042   1.980503 C.ar        1 UNL1     0.0226
     10 C         -6.072541   -1.526906   2.249942 C.ar        1 UNL1     0.1343
     11 C         -6.549751   -1.658402   3.553331 C.ar        1 UNL1     0.1007
     12 C         -5.627786   -1.801866   4.593611 C.ar        1 UNL1     0.1389
     13 C         -4.248388   -1.874736   4.322721 C.ar        1 UNL1     0.0229
     14 C         -7.993366   -1.670701   3.88496 C.2        1 UNL1     0.1740
     15 C         -8.331707   -2.044068   5.29835 C.3        1 UNL1     0.0520
     16 C         -7.319861   -1.385598   6.226003 C.3        1 UNL1     0.1322
     17 O         -5.979822   -1.832349   5.92305 O.3        1 UNL1     -0.4828
     18 C         -7.474313   0.133818   6.327226 C.ar        1 UNL1     -0.0067
     19 C         -7.055257   0.945604   5.253165 C.ar        1 UNL1     -0.0516
     20 C         -7.138542   2.340874   5.332216 C.ar        1 UNL1     -0.0198
     21 C         -7.631076   2.935399   6.480161 C.ar        1 UNL1     0.1169
     22 C         -8.082701   2.161708   7.541423 C.ar        1 UNL1     -0.0198
     23 C         -8.01669   0.765896   7.455366 C.ar        1 UNL1     -0.0516
     24 O         -7.66191   4.297887   6.535633 O.3        1 UNL1     -0.5068
     25 O         -8.878893   -1.471608   3.057501 O.2        1 UNL1     -0.2917
     26 O         -6.927087   -1.344896   1.201988 O.3        1 UNL1     -0.5058
     27 O         0.451773   -0.861066   2.367361 O.3        1 UNL1     -0.3648
     28 O         0.209665   -1.69679   -1.1348 O.3        1 UNL1     -0.3841
     29 O         -2.458513   0.109966   0.435966 O.3        1 UNL1     -0.3863
     30 O         -2.239258   -3.427355   -0.533259 O.3        1 UNL1     -0.3829
     31 H         1.172383   -2.157875   1.034321 H        1 UNL1     0.0937
     32 H         0.0   0.0   0.0 H        1 UNL1     0.0671
     33 H         -2.105369   -1.014625   -1.205474 H        1 UNL1     0.0649
     34 H         -3.592561   -2.243379   0.456037 H        1 UNL1     0.0683
     35 H         -2.368793   -3.757806   1.947061 H        1 UNL1     0.1085
     36 H         -4.397773   -1.548714   0.940576 H        1 UNL1     0.0691
     37 H         -3.551127   -1.985547   5.150394 H        1 UNL1     0.0691
     38 H         -8.284012   -3.135709   5.372991 H        1 UNL1     0.0385
     39 H         -9.35842   -1.73085   5.516373 H        1 UNL1     0.0385
     40 H         -7.513635   -1.76546   7.238266 H        1 UNL1     0.0789
     41 H         -6.656455   0.503484   4.344794 H        1 UNL1     0.0623
     42 H         -6.801121   2.956351   4.501947 H        1 UNL1     0.0654
     43 H         -8.484189   2.616556   8.439104 H        1 UNL1     0.0654
     44 H         -8.388169   0.192278   8.299054 H        1 UNL1     0.0623
     45 H         -6.979495   4.594969   7.159146 H        1 UNL1     0.2921
     46 H         -7.683882   -1.945121   1.293655 H        1 UNL1     0.2922
     47 H         1.059264   -0.163606   2.083876 H        1 UNL1     0.2126
     48 H         -0.371396   -2.456685   -1.331419 H        1 UNL1     0.2101
     49 H         -2.784404   -0.082849   1.329505 H        1 UNL1     0.2100
     50 H         -2.749977   -3.250718   -1.350374 H        1 UNL1     0.2102
@<TRIPOS>BOND
     1     1     2    1
     2     1     6    1
     3     2     3    1
     4     3     4    1
     5     3    29    1
     6     3    33    1
     7     4     5    1
     8     5     6    1
     9     5     7    1
    10     5    35    1
    11     7     8    1
    12     8     9   ar
    13     8    13   ar
    14     9    10   ar
    15     9    36    1
    16    10    11   ar
    17    10    26    1
    18    11    12   ar
    19    11    14    1
    20    12    13   ar
    21    12    17    1
    22    13    37    1
    23    14    15    1
    24    14    25    2
    25    15    16    1
    26    15    38    1
    27    15    39    1
    28    16    17    1
    29    16    18    1
    30    16    40    1
    31    18    19   ar
    32    18    23   ar
    33    19    20   ar
    34    19    41    1
    35    20    21   ar
    36    20    42    1
    37    21    22   ar
    38    21    24    1
    39    22    23   ar
    40    22    43    1
    41    23    44    1
    42    24    45    1
    43    26    46    1
    44    27    47    1
    45    28    48    1
    46    29    49    1
    47    30    50    1
    48     1    31    1
    49     1    27    1
    50     2    32    1
    51     2    28    1
    52     4    34    1
    53     4    30    1
