@<TRIPOS>MOLECULE
*****
 50 53 0 0 0
SMALL
GASTEIGER

@<TRIPOS>ATOM
     1 C         -2.167625   -0.234891   -0.1305 C.3        1 UNL1     0.1889
     2 C         -0.781269   0.049331   -0.768601 C.3        1 UNL1     0.1342
     3 C         -0.677189   1.394636   -1.503302 C.3        1 UNL1     0.1174
     4 C         -1.981735   1.794419   -2.197169 C.3        1 UNL1     0.1456
     5 C         -3.21206   1.615794   -1.289007 C.3        1 UNL1     0.2326
     6 O         -3.292041   0.26526   -0.838972 O.3        1 UNL1     -0.3076
     7 O         -3.277434   2.574174   -0.217301 O.3        1 UNL1     -0.4605
     8 C         -4.547081   2.938134   0.193867 C.ar        1 UNL1     0.1310
     9 C         -5.608407   3.273281   -0.653814 C.ar        1 UNL1     0.0226
     10 C         -6.865655   3.612693   -0.139975 C.ar        1 UNL1     0.1343
     11 C         -7.098889   3.602059   1.234554 C.ar        1 UNL1     0.1007
     12 C         -6.035709   3.308964   2.092765 C.ar        1 UNL1     0.1389
     13 C         -4.770939   2.970294   1.575957 C.ar        1 UNL1     0.0229
     14 C         -8.429382   3.870595   1.827706 C.2        1 UNL1     0.1740
     15 C         -8.551522   3.598588   3.298299 C.3        1 UNL1     0.0520
     16 C         -7.2775   4.073266   3.983505 C.3        1 UNL1     0.1322
     17 O         -6.124853   3.374339   3.463913 O.3        1 UNL1     -0.4828
     18 C         -7.130627   5.596248   4.024459 C.ar        1 UNL1     -0.0067
     19 C         -5.913365   6.185586   3.6255 C.ar        1 UNL1     -0.0516
     20 C         -5.72939   7.571662   3.695581 C.ar        1 UNL1     -0.0198
     21 C         -6.750087   8.376753   4.168689 C.ar        1 UNL1     0.1169
     22 C         -7.971968   7.829132   4.537413 C.ar        1 UNL1     -0.0198
     23 C         -8.162641   6.444913   4.450026 C.ar        1 UNL1     -0.0516
     24 O         -6.521159   9.718374   4.258387 O.3        1 UNL1     -0.5068
     25 O         -9.406348   4.215977   1.168362 O.2        1 UNL1     -0.2917
     26 O         -7.858289   3.930692   -1.020395 O.3        1 UNL1     -0.5058
     27 O         -2.23184   0.088426   1.249402 O.3        1 UNL1     -0.3648
     28 O         -0.50019   -0.98598   -1.728722 O.3        1 UNL1     -0.3841
     29 O         -0.180079   2.411594   -0.631057 O.3        1 UNL1     -0.3863
     30 O         -2.15659   0.98461   -3.380099 O.3        1 UNL1     -0.3829
     31 H         -2.308798   -1.320841   -0.159865 H        1 UNL1     0.0937
     32 H         0.0   0.0   0.0 H        1 UNL1     0.0671
     33 H         0.082101   1.288847   -2.290707 H        1 UNL1     0.0649
     34 H         -1.924908   2.837304   -2.52817 H        1 UNL1     0.0683
     35 H         -4.063346   1.778743   -1.961792 H        1 UNL1     0.1085
     36 H         -5.506642   3.245846   -1.733171 H        1 UNL1     0.0691
     37 H         -3.959423   2.747243   2.265292 H        1 UNL1     0.0691
     38 H         -8.689696   2.519541   3.425158 H        1 UNL1     0.0385
     39 H         -9.44266   4.105248   3.684237 H        1 UNL1     0.0385
     40 H         -7.338617   3.758864   5.034189 H        1 UNL1     0.0789
     41 H         -5.093609   5.574478   3.259171 H        1 UNL1     0.0623
     42 H         -4.781951   8.012975   3.396226 H        1 UNL1     0.0654
     43 H         -8.783216   8.451911   4.89509 H        1 UNL1     0.0654
     44 H         -9.133559   6.052319   4.736441 H        1 UNL1     0.0623
     45 H         -5.777851   9.862704   4.866154 H        1 UNL1     0.2921
     46 H         -8.619798   3.347573   -0.873803 H        1 UNL1     0.2922
     47 H         -1.539061   -0.380067   1.735644 H        1 UNL1     0.2126
     48 H         -0.476335   -1.827489   -1.23372 H        1 UNL1     0.2101
     49 H         0.752683   2.241733   -0.423944 H        1 UNL1     0.2100
     50 H         -1.441383   1.212181   -4.009705 H        1 UNL1     0.2102
@<TRIPOS>BOND
     1     1     2    1
     2     1     6    1
     3     2     3    1
     4     3     4    1
     5     3    29    1
     6     3    33    1
     7     4     5    1
     8     5     6    1
     9     5     7    1
    10     5    35    1
    11     7     8    1
    12     8     9   ar
    13     8    13   ar
    14     9    10   ar
    15     9    36    1
    16    10    11   ar
    17    10    26    1
    18    11    12   ar
    19    11    14    1
    20    12    13   ar
    21    12    17    1
    22    13    37    1
    23    14    15    1
    24    14    25    2
    25    15    16    1
    26    15    38    1
    27    15    39    1
    28    16    17    1
    29    16    18    1
    30    16    40    1
    31    18    19   ar
    32    18    23   ar
    33    19    20   ar
    34    19    41    1
    35    20    21   ar
    36    20    42    1
    37    21    22   ar
    38    21    24    1
    39    22    23   ar
    40    22    43    1
    41    23    44    1
    42    24    45    1
    43    26    46    1
    44    27    47    1
    45    28    48    1
    46    29    49    1
    47    30    50    1
    48     1    31    1
    49     1    27    1
    50     2    32    1
    51     2    28    1
    52     4    34    1
    53     4    30    1
