@<TRIPOS>MOLECULE
*****
 50 53 0 0 0
SMALL
GASTEIGER

@<TRIPOS>ATOM
     1 C         -1.533945   0.38079   -1.507586 C.3        1 UNL1     0.1889
     2 C         -0.31727   0.823879   -0.651248 C.3        1 UNL1     0.1342
     3 C         -0.558373   2.075888   0.205961 C.3        1 UNL1     0.1174
     4 C         -1.479262   3.092259   -0.473798 C.3        1 UNL1     0.1456
     5 C         -2.734419   2.438475   -1.080024 C.3        1 UNL1     0.2326
     6 O         -2.354473   1.425695   -2.008887 O.3        1 UNL1     -0.3076
     7 O         -3.674062   1.976838   -0.092459 O.3        1 UNL1     -0.4605
     8 C         -5.00035   1.947938   -0.484445 C.ar        1 UNL1     0.1310
     9 C         -5.643024   0.862552   -1.089595 C.ar        1 UNL1     0.0226
     10 C         -6.99824   0.92479   -1.435164 C.ar        1 UNL1     0.1343
     11 C         -7.750333   2.066533   -1.161999 C.ar        1 UNL1     0.1007
     12 C         -7.109721   3.171695   -0.595415 C.ar        1 UNL1     0.1389
     13 C         -5.746415   3.109814   -0.250455 C.ar        1 UNL1     0.0229
     14 C         -9.204555   2.155913   -1.42921 C.2        1 UNL1     0.1740
     15 C         -9.894115   3.366019   -0.870908 C.3        1 UNL1     0.0520
     16 C         -8.985462   4.571754   -1.067148 C.3        1 UNL1     0.1322
     17 O         -7.727244   4.382396   -0.382967 O.3        1 UNL1     -0.4828
     18 C         -8.853688   5.012911   -2.526853 C.ar        1 UNL1     -0.0067
     19 C         -9.910316   5.722178   -3.134054 C.ar        1 UNL1     -0.0516
     20 C         -9.842088   6.099048   -4.480633 C.ar        1 UNL1     -0.0198
     21 C         -8.728342   5.76693   -5.231029 C.ar        1 UNL1     0.1169
     22 C         -7.657356   5.098274   -4.652472 C.ar        1 UNL1     -0.0198
     23 C         -7.717422   4.737467   -3.301077 C.ar        1 UNL1     -0.0516
     24 O         -8.713747   6.117489   -6.549094 O.3        1 UNL1     -0.5068
     25 O         -9.843126   1.273707   -1.997034 O.2        1 UNL1     -0.2917
     26 O         -7.565035   -0.16786   -2.023761 O.3        1 UNL1     -0.5058
     27 O         -2.304448   -0.647295   -0.905794 O.3        1 UNL1     -0.3648
     28 O         0.780976   1.115062   -1.535428 O.3        1 UNL1     -0.3841
     29 O         -1.002517   1.715878   1.515641 O.3        1 UNL1     -0.3863
     30 O         -0.750907   3.762169   -1.525658 O.3        1 UNL1     -0.3829
     31 H         -1.127063   -0.082164   -2.413235 H        1 UNL1     0.0937
     32 H         0.0   0.0   0.0 H        1 UNL1     0.0671
     33 H         0.410466   2.57336   0.352909 H        1 UNL1     0.0649
     34 H         -1.783341   3.860925   0.245292 H        1 UNL1     0.0683
     35 H         -3.19894   3.245498   -1.660379 H        1 UNL1     0.1085
     36 H         -5.127639   -0.073033   -1.277157 H        1 UNL1     0.0691
     37 H         -5.270833   3.984256   0.188481 H        1 UNL1     0.0691
     38 H         -10.07981   3.180304   0.192367 H        1 UNL1     0.0385
     39 H         -10.860985   3.490557   -1.370339 H        1 UNL1     0.0385
     40 H         -9.455054   5.418737   -0.54886 H        1 UNL1     0.0789
     41 H         -10.799298   5.986777   -2.568944 H        1 UNL1     0.0623
     42 H         -10.668493   6.635278   -4.94055 H        1 UNL1     0.0654
     43 H         -6.773953   4.846458   -5.227012 H        1 UNL1     0.0654
     44 H         -6.858142   4.225246   -2.879042 H        1 UNL1     0.0623
     45 H         -8.240239   6.960566   -6.636994 H        1 UNL1     0.2921
     46 H         -6.867657   -0.773078   -2.321732 H        1 UNL1     0.2922
     47 H         -1.812779   -1.480423   -0.910255 H        1 UNL1     0.2126
     48 H         1.498914   1.475782   -0.980289 H        1 UNL1     0.2101
     49 H         -1.968977   1.786994   1.567526 H        1 UNL1     0.2100
     50 H         0.166169   3.906347   -1.212774 H        1 UNL1     0.2102
@<TRIPOS>BOND
     1     1     2    1
     2     1     6    1
     3     2     3    1
     4     3     4    1
     5     3    29    1
     6     3    33    1
     7     4     5    1
     8     5     6    1
     9     5     7    1
    10     5    35    1
    11     7     8    1
    12     8     9   ar
    13     8    13   ar
    14     9    10   ar
    15     9    36    1
    16    10    11   ar
    17    10    26    1
    18    11    12   ar
    19    11    14    1
    20    12    13   ar
    21    12    17    1
    22    13    37    1
    23    14    15    1
    24    14    25    2
    25    15    16    1
    26    15    38    1
    27    15    39    1
    28    16    17    1
    29    16    18    1
    30    16    40    1
    31    18    19   ar
    32    18    23   ar
    33    19    20   ar
    34    19    41    1
    35    20    21   ar
    36    20    42    1
    37    21    22   ar
    38    21    24    1
    39    22    23   ar
    40    22    43    1
    41    23    44    1
    42    24    45    1
    43    26    46    1
    44    27    47    1
    45    28    48    1
    46    29    49    1
    47    30    50    1
    48     1    31    1
    49     1    27    1
    50     2    32    1
    51     2    28    1
    52     4    34    1
    53     4    30    1
