@<TRIPOS>MOLECULE
*****
 50 53 0 0 0
SMALL
GASTEIGER

@<TRIPOS>ATOM
     1 C         0.545358   -0.917197   -1.905817 C.3        1 UNL1     0.1889
     2 C         -0.305366   0.061119   -1.05194 C.3        1 UNL1     0.1342
     3 C         -1.823033   -0.158349   -1.146729 C.3        1 UNL1     0.1174
     4 C         -2.271102   -0.613852   -2.537725 C.3        1 UNL1     0.1456
     5 C         -1.390153   -1.743932   -3.100941 C.3        1 UNL1     0.2326
     6 O         -0.027835   -1.325023   -3.139317 O.3        1 UNL1     -0.3076
     7 O         -1.576063   -3.003869   -2.43063 O.3        1 UNL1     -0.4605
     8 C         -0.509606   -3.449296   -1.670505 C.ar        1 UNL1     0.1310
     9 C         0.767966   -2.879343   -1.654262 C.ar        1 UNL1     0.0226
     10 C         1.779744   -3.39411   -0.83498 C.ar        1 UNL1     0.1343
     11 C         1.531394   -4.477657   0.0065 C.ar        1 UNL1     0.1007
     12 C         0.271455   -5.080909   -0.031259 C.ar        1 UNL1     0.1389
     13 C         -0.744934   -4.564772   -0.857084 C.ar        1 UNL1     0.0229
     14 C         2.538591   -5.009053   0.953773 C.2        1 UNL1     0.1740
     15 C         2.033904   -6.025448   1.935497 C.3        1 UNL1     0.0520
     16 C         1.069768   -6.956066   1.21276 C.3        1 UNL1     0.1322
     17 O         -0.048972   -6.217603   0.674093 O.3        1 UNL1     -0.4828
     18 C         1.751177   -7.893841   0.213268 C.ar        1 UNL1     -0.0067
     19 C         1.362687   -7.86218   -1.141829 C.ar        1 UNL1     -0.0516
     20 C         1.931891   -8.739106   -2.072942 C.ar        1 UNL1     -0.0198
     21 C         2.883103   -9.655263   -1.661021 C.ar        1 UNL1     0.1169
     22 C         3.310497   -9.688045   -0.34 C.ar        1 UNL1     -0.0198
     23 C         2.754837   -8.798778   0.587634 C.ar        1 UNL1     -0.0516
     24 O         3.38759   -10.518747   -2.588539 O.3        1 UNL1     -0.5068
     25 O         3.696691   -4.603539   1.007142 O.2        1 UNL1     -0.2917
     26 O         3.004224   -2.79309   -0.866703 O.3        1 UNL1     -0.5058
     27 O         1.045005   -2.022304   -1.169693 O.3        1 UNL1     -0.3648
     28 O         -0.038247   1.40443   -1.495641 O.3        1 UNL1     -0.3841
     29 O         -2.275478   -1.028189   -0.107111 O.3        1 UNL1     -0.3863
     30 O         -2.219845   0.509805   -3.443515 O.3        1 UNL1     -0.3829
     31 H         1.442968   -0.367698   -2.209834 H        1 UNL1     0.0937
     32 H         0.0   0.0   0.0 H        1 UNL1     0.0671
     33 H         -2.313951   0.805923   -0.954634 H        1 UNL1     0.0649
     34 H         -3.313134   -0.950584   -2.503347 H        1 UNL1     0.0683
     35 H         -1.722355   -1.844522   -4.141807 H        1 UNL1     0.1085
     36 H         1.008086   -2.001115   -2.24348 H        1 UNL1     0.0691
     37 H         -1.716913   -5.053246   -0.869046 H        1 UNL1     0.0691
     38 H         1.529636   -5.48401   2.743015 H        1 UNL1     0.0385
     39 H         2.885803   -6.563895   2.364592 H        1 UNL1     0.0385
     40 H         0.624739   -7.613873   1.971548 H        1 UNL1     0.0789
     41 H         0.61142   -7.158552   -1.488462 H        1 UNL1     0.0623
     42 H         1.615327   -8.712956   -3.112709 H        1 UNL1     0.0654
     43 H         4.065662   -10.391298   -0.009741 H        1 UNL1     0.0654
     44 H         3.119894   -8.845087   1.60912 H        1 UNL1     0.0623
     45 H         3.683577   -11.322133   -2.130631 H        1 UNL1     0.2921
     46 H         2.921603   -1.874442   -0.565585 H        1 UNL1     0.2922
     47 H         1.606783   -2.573109   -1.732614 H        1 UNL1     0.2126
     48 H         -0.866147   1.90838   -1.375857 H        1 UNL1     0.2101
     49 H         -2.351466   -0.535606   0.725584 H        1 UNL1     0.2100
     50 H         -1.409388   1.022207   -3.242726 H        1 UNL1     0.2102
@<TRIPOS>BOND
     1     1     2    1
     2     1     6    1
     3     2     3    1
     4     3     4    1
     5     3    29    1
     6     3    33    1
     7     4     5    1
     8     5     6    1
     9     5     7    1
    10     5    35    1
    11     7     8    1
    12     8     9   ar
    13     8    13   ar
    14     9    10   ar
    15     9    36    1
    16    10    11   ar
    17    10    26    1
    18    11    12   ar
    19    11    14    1
    20    12    13   ar
    21    12    17    1
    22    13    37    1
    23    14    15    1
    24    14    25    2
    25    15    16    1
    26    15    38    1
    27    15    39    1
    28    16    17    1
    29    16    18    1
    30    16    40    1
    31    18    19   ar
    32    18    23   ar
    33    19    20   ar
    34    19    41    1
    35    20    21   ar
    36    20    42    1
    37    21    22   ar
    38    21    24    1
    39    22    23   ar
    40    22    43    1
    41    23    44    1
    42    24    45    1
    43    26    46    1
    44    27    47    1
    45    28    48    1
    46    29    49    1
    47    30    50    1
    48     1    31    1
    49     1    27    1
    50     2    32    1
    51     2    28    1
    52     4    34    1
    53     4    30    1
