@<TRIPOS>MOLECULE
*****
 50 53 0 0 0
SMALL
GASTEIGER

@<TRIPOS>ATOM
     1 C         -0.351304   -1.339602   1.68904 C.3        1 UNL1     0.1889
     2 C         -0.471082   -0.973309   0.185237 C.3        1 UNL1     0.1342
     3 C         -1.908947   -0.945079   -0.355329 C.3        1 UNL1     0.1174
     4 C         -2.806957   -2.002731   0.291254 C.3        1 UNL1     0.1456
     5 C         -2.663612   -2.041831   1.823666 C.3        1 UNL1     0.2326
     6 O         -1.302322   -2.273482   2.178763 O.3        1 UNL1     -0.3076
     7 O         -3.232988   -0.895693   2.482074 O.3        1 UNL1     -0.4605
     8 C         -3.761454   -1.119985   3.740623 C.ar        1 UNL1     0.1310
     9 C         -4.595343   -2.187327   4.090924 C.ar        1 UNL1     0.0226
     10 C         -5.066797   -2.337838   5.400497 C.ar        1 UNL1     0.1343
     11 C         -4.696105   -1.437014   6.397966 C.ar        1 UNL1     0.1007
     12 C         -3.897152   -0.344193   6.051267 C.ar        1 UNL1     0.1389
     13 C         -3.425392   -0.191608   4.733848 C.ar        1 UNL1     0.0229
     14 C         -5.096701   -1.595121   7.815244 C.2        1 UNL1     0.1740
     15 C         -4.42867   -0.666452   8.786253 C.3        1 UNL1     0.0520
     16 C         -4.334515   0.712288   8.147373 C.3        1 UNL1     0.1322
     17 O         -3.561005   0.660824   6.928315 O.3        1 UNL1     -0.4828
     18 C         -5.683639   1.422613   8.013106 C.ar        1 UNL1     -0.0067
     19 C         -6.032519   2.020011   6.784443 C.ar        1 UNL1     -0.0516
     20 C         -7.237602   2.718125   6.641708 C.ar        1 UNL1     -0.0198
     21 C         -8.09703   2.831986   7.719784 C.ar        1 UNL1     0.1169
     22 C         -7.796741   2.226101   8.932866 C.ar        1 UNL1     -0.0198
     23 C         -6.600279   1.512249   9.070523 C.ar        1 UNL1     -0.0516
     24 O         -9.243847   3.551537   7.554084 O.3        1 UNL1     -0.5068
     25 O         -5.86124   -2.472493   8.207906 O.2        1 UNL1     -0.2917
     26 O         -5.877633   -3.399897   5.676467 O.3        1 UNL1     -0.5058
     27 O         -0.241524   -0.209178   2.53926 O.3        1 UNL1     -0.3648
     28 O         0.255778   -1.951163   -0.581695 O.3        1 UNL1     -0.3841
     29 O         -2.456488   0.372213   -0.271232 O.3        1 UNL1     -0.3863
     30 O         -2.46685   -3.301889   -0.239975 O.3        1 UNL1     -0.3829
     31 H         0.60468   -1.860967   1.808836 H        1 UNL1     0.0937
     32 H         0.0   0.0   0.0 H        1 UNL1     0.0671
     33 H         -1.868169   -1.176104   -1.428961 H        1 UNL1     0.0649
     34 H         -3.854287   -1.81404   0.030686 H        1 UNL1     0.0683
     35 H         -3.226922   -2.935786   2.119309 H        1 UNL1     0.1085
     36 H         -4.874065   -2.952161   3.374361 H        1 UNL1     0.0691
     37 H         -2.805707   0.668456   4.489361 H        1 UNL1     0.0691
     38 H         -3.433804   -1.071171   9.000659 H        1 UNL1     0.0385
     39 H         -5.000559   -0.65178   9.720333 H        1 UNL1     0.0385
     40 H         -3.740388   1.342291   8.823116 H        1 UNL1     0.0789
     41 H         -5.370789   1.952664   5.925822 H        1 UNL1     0.0623
     42 H         -7.489818   3.184529   5.692568 H        1 UNL1     0.0654
     43 H         -8.469607   2.296252   9.779176 H        1 UNL1     0.0654
     44 H         -6.402731   1.042701   10.029348 H        1 UNL1     0.0623
     45 H         -9.003024   4.469885   7.350716 H        1 UNL1     0.2921
     46 H         -5.489855   -3.925041   6.394286 H        1 UNL1     0.2922
     47 H         0.494498   0.351692   2.257201 H        1 UNL1     0.2126
     48 H         1.19443   -1.865751   -0.326023 H        1 UNL1     0.2101
     49 H         -2.015553   0.954302   -0.910405 H        1 UNL1     0.2100
     50 H         -2.700447   -3.309194   -1.191338 H        1 UNL1     0.2102
@<TRIPOS>BOND
     1     1     2    1
     2     1     6    1
     3     2     3    1
     4     3     4    1
     5     3    29    1
     6     3    33    1
     7     4     5    1
     8     5     6    1
     9     5     7    1
    10     5    35    1
    11     7     8    1
    12     8     9   ar
    13     8    13   ar
    14     9    10   ar
    15     9    36    1
    16    10    11   ar
    17    10    26    1
    18    11    12   ar
    19    11    14    1
    20    12    13   ar
    21    12    17    1
    22    13    37    1
    23    14    15    1
    24    14    25    2
    25    15    16    1
    26    15    38    1
    27    15    39    1
    28    16    17    1
    29    16    18    1
    30    16    40    1
    31    18    19   ar
    32    18    23   ar
    33    19    20   ar
    34    19    41    1
    35    20    21   ar
    36    20    42    1
    37    21    22   ar
    38    21    24    1
    39    22    23   ar
    40    22    43    1
    41    23    44    1
    42    24    45    1
    43    26    46    1
    44    27    47    1
    45    28    48    1
    46    29    49    1
    47    30    50    1
    48     1    31    1
    49     1    27    1
    50     2    32    1
    51     2    28    1
    52     4    34    1
    53     4    30    1
