@<TRIPOS>MOLECULE
*****
 50 53 0 0 0
SMALL
GASTEIGER

@<TRIPOS>ATOM
     1 C         -0.336204   -1.331643   1.698381 C.3        1 UNL1     0.1889
     2 C         -0.464717   -0.974856   0.193015 C.3        1 UNL1     0.1342
     3 C         -1.905099   -0.957932   -0.341289 C.3        1 UNL1     0.1174
     4 C         -2.794211   -2.016838   0.315457 C.3        1 UNL1     0.1456
     5 C         -2.643864   -2.046142   1.847416 C.3        1 UNL1     0.2326
     6 O         -1.27972   -2.268001   2.197785 O.3        1 UNL1     -0.3076
     7 O         -3.216825   -0.899404   2.501656 O.3        1 UNL1     -0.4605
     8 C         -4.432718   -1.103895   3.128804 C.ar        1 UNL1     0.1310
     9 C         -5.523129   -1.786895   2.579426 C.ar        1 UNL1     0.0226
     10 C         -6.709669   -1.95684   3.302713 C.ar        1 UNL1     0.1343
     11 C         -6.826251   -1.468061   4.60323 C.ar        1 UNL1     0.1007
     12 C         -5.758896   -0.748687   5.147323 C.ar        1 UNL1     0.1389
     13 C         -4.566903   -0.575654   4.418872 C.ar        1 UNL1     0.0229
     14 C         -8.025646   -1.691915   5.443168 C.2        1 UNL1     0.1740
     15 C         -7.893028   -1.293526   6.88374 C.3        1 UNL1     0.0520
     16 C         -7.121709   0.017336   6.952053 C.3        1 UNL1     0.1322
     17 O         -5.805309   -0.131649   6.375891 O.3        1 UNL1     -0.4828
     18 C         -7.908668   1.223087   6.432837 C.ar        1 UNL1     -0.0067
     19 C         -7.300773   2.103432   5.514323 C.ar        1 UNL1     -0.0516
     20 C         -7.975164   3.24147   5.056032 C.ar        1 UNL1     -0.0198
     21 C         -9.252142   3.513584   5.513316 C.ar        1 UNL1     0.1169
     22 C         -9.889929   2.647763   6.39219 C.ar        1 UNL1     -0.0198
     23 C         -9.22279   1.499872   6.836405 C.ar        1 UNL1     -0.0516
     24 O         -9.863128   4.651183   5.074037 O.3        1 UNL1     -0.5068
     25 O         -9.04569   -2.239432   5.033021 O.2        1 UNL1     -0.2917
     26 O         -7.7363   -2.631628   2.709186 O.3        1 UNL1     -0.5058
     27 O         -0.229087   -0.19565   2.54149 O.3        1 UNL1     -0.3648
     28 O         0.264286   -1.953061   -0.57143 O.3        1 UNL1     -0.3841
     29 O         -2.459741   0.356711   -0.262442 O.3        1 UNL1     -0.3863
     30 O         -2.44908   -3.317144   -0.20969 O.3        1 UNL1     -0.3829
     31 H         0.62325   -1.846879   1.816954 H        1 UNL1     0.0937
     32 H         0.0   0.0   0.0 H        1 UNL1     0.0671
     33 H         -1.867762   -1.195013   -1.413724 H        1 UNL1     0.0649
     34 H         -3.84374   -1.835608   0.058465 H        1 UNL1     0.0683
     35 H         -3.200769   -2.941521   2.150783 H        1 UNL1     0.1085
     36 H         -5.475557   -2.238794   1.594721 H        1 UNL1     0.0691
     37 H         -3.750997   -0.010697   4.864534 H        1 UNL1     0.0691
     38 H         -7.355546   -2.095454   7.400994 H        1 UNL1     0.0385
     39 H         -8.891443   -1.210014   7.326427 H        1 UNL1     0.0385
     40 H         -6.934508   0.227817   8.013737 H        1 UNL1     0.0789
     41 H         -6.295705   1.916895   5.147317 H        1 UNL1     0.0623
     42 H         -7.491166   3.918983   4.356938 H        1 UNL1     0.0654
     43 H         -10.895505   2.843341   6.745002 H        1 UNL1     0.0654
     44 H         -9.755205   0.839994   7.514594 H        1 UNL1     0.0623
     45 H         -9.32845   5.412928   5.35077 H        1 UNL1     0.2921
     46 H         -7.994054   -3.383308   3.265919 H        1 UNL1     0.2922
     47 H         0.513622   0.35855   2.263811 H        1 UNL1     0.2126
     48 H         1.199901   -1.878227   -0.301695 H        1 UNL1     0.2101
     49 H         -2.019227   0.939598   -0.901178 H        1 UNL1     0.2100
     50 H         -2.686841   -3.331348   -1.159943 H        1 UNL1     0.2102
@<TRIPOS>BOND
     1     1     2    1
     2     1     6    1
     3     2     3    1
     4     3     4    1
     5     3    29    1
     6     3    33    1
     7     4     5    1
     8     5     6    1
     9     5     7    1
    10     5    35    1
    11     7     8    1
    12     8     9   ar
    13     8    13   ar
    14     9    10   ar
    15     9    36    1
    16    10    11   ar
    17    10    26    1
    18    11    12   ar
    19    11    14    1
    20    12    13   ar
    21    12    17    1
    22    13    37    1
    23    14    15    1
    24    14    25    2
    25    15    16    1
    26    15    38    1
    27    15    39    1
    28    16    17    1
    29    16    18    1
    30    16    40    1
    31    18    19   ar
    32    18    23   ar
    33    19    20   ar
    34    19    41    1
    35    20    21   ar
    36    20    42    1
    37    21    22   ar
    38    21    24    1
    39    22    23   ar
    40    22    43    1
    41    23    44    1
    42    24    45    1
    43    26    46    1
    44    27    47    1
    45    28    48    1
    46    29    49    1
    47    30    50    1
    48     1    31    1
    49     1    27    1
    50     2    32    1
    51     2    28    1
    52     4    34    1
    53     4    30    1
