@<TRIPOS>MOLECULE
*****
 50 53 0 0 0
SMALL
GASTEIGER

@<TRIPOS>ATOM
     1 C         -0.351203   -1.339557   1.689097 C.3        1 UNL1     0.1889
     2 C         -0.471029   -0.973326   0.185283 C.3        1 UNL1     0.1342
     3 C         -1.908906   -0.94519   -0.355256 C.3        1 UNL1     0.1174
     4 C         -2.806849   -2.002863   0.291385 C.3        1 UNL1     0.1456
     5 C         -2.663472   -2.041898   1.823795 C.3        1 UNL1     0.2326
     6 O         -1.302163   -2.273467   2.178875 O.3        1 UNL1     -0.3076
     7 O         -3.232893   -0.895765   2.482172 O.3        1 UNL1     -0.4605
     8 C         -3.761323   -1.120036   3.740739 C.ar        1 UNL1     0.1310
     9 C         -4.589531   -2.191223   4.092777 C.ar        1 UNL1     0.0226
     10 C         -5.061415   -2.341273   5.402247 C.ar        1 UNL1     0.1343
     11 C         -4.696782   -1.436004   6.397924 C.ar        1 UNL1     0.1007
     12 C         -3.903656   -0.339526   6.049394 C.ar        1 UNL1     0.1389
     13 C         -3.43147   -0.18742   4.732073 C.ar        1 UNL1     0.0229
     14 C         -5.097873   -1.592994   7.815187 C.2        1 UNL1     0.1740
     15 C         -4.436036   -0.658268   8.784625 C.3        1 UNL1     0.0520
     16 C         -4.349021   0.719457   8.142551 C.3        1 UNL1     0.1322
     17 O         -3.574037   0.669452   6.924368 O.3        1 UNL1     -0.4828
     18 C         -5.701992   1.421847   8.005284 C.ar        1 UNL1     -0.0067
     19 C         -6.053024   2.014346   6.774863 C.ar        1 UNL1     -0.0516
     20 C         -7.26188   2.705317   6.629297 C.ar        1 UNL1     -0.0198
     21 C         -8.122993   2.816898   7.706266 C.ar        1 UNL1     0.1169
     22 C         -7.820487   2.215603   8.92108 C.ar        1 UNL1     -0.0198
     23 C         -6.620159   1.508833   9.061597 C.ar        1 UNL1     -0.0516
     24 O         -9.273681   3.52958   7.53774 O.3        1 UNL1     -0.5068
     25 O         -5.857843   -2.473723   8.209199 O.2        1 UNL1     -0.2917
     26 O         -5.866528   -3.407224   5.679963 O.3        1 UNL1     -0.5058
     27 O         -0.241463   -0.209094   2.539273 O.3        1 UNL1     -0.3648
     28 O         0.255866   -1.951171   -0.581626 O.3        1 UNL1     -0.3841
     29 O         -2.456513   0.372077   -0.271198 O.3        1 UNL1     -0.3863
     30 O         -2.466686   -3.302024   -0.239802 O.3        1 UNL1     -0.3829
     31 H         0.604811   -1.860868   1.808895 H        1 UNL1     0.0937
     32 H         0.0   0.0   0.0 H        1 UNL1     0.0671
     33 H         -1.868138   -1.176253   -1.42888 H        1 UNL1     0.0649
     34 H         -3.854194   -1.814236   0.03083 H        1 UNL1     0.0683
     35 H         -3.22673   -2.935871   2.119483 H        1 UNL1     0.1085
     36 H         -4.863237   -2.959318   3.377769 H        1 UNL1     0.0691
     37 H         -2.816399   0.675538   4.486136 H        1 UNL1     0.0691
     38 H         -3.439117   -1.056864   9.000959 H        1 UNL1     0.0385
     39 H         -5.008916   -0.644597   9.718113 H        1 UNL1     0.0385
     40 H         -3.759115   1.354403   8.817365 H        1 UNL1     0.0789
     41 H         -5.390083   1.948686   5.917047 H        1 UNL1     0.0623
     42 H         -7.515786   3.168034   5.678804 H        1 UNL1     0.0654
     43 H         -8.494569   2.283974   9.766568 H        1 UNL1     0.0654
     44 H         -6.420911   1.042687   10.021729 H        1 UNL1     0.0623
     45 H         -9.037835   4.448784   7.332417 H        1 UNL1     0.2921
     46 H         -5.476503   -3.928465   6.399408 H        1 UNL1     0.2922
     47 H         0.494525   0.351802   2.257178 H        1 UNL1     0.2126
     48 H         1.194519   -1.865702   -0.325977 H        1 UNL1     0.2101
     49 H         -2.015619   0.954165   -0.910402 H        1 UNL1     0.2100
     50 H         -2.700301   -3.309377   -1.19116 H        1 UNL1     0.2102
@<TRIPOS>BOND
     1     1     2    1
     2     1     6    1
     3     2     3    1
     4     3     4    1
     5     3    29    1
     6     3    33    1
     7     4     5    1
     8     5     6    1
     9     5     7    1
    10     5    35    1
    11     7     8    1
    12     8     9   ar
    13     8    13   ar
    14     9    10   ar
    15     9    36    1
    16    10    11   ar
    17    10    26    1
    18    11    12   ar
    19    11    14    1
    20    12    13   ar
    21    12    17    1
    22    13    37    1
    23    14    15    1
    24    14    25    2
    25    15    16    1
    26    15    38    1
    27    15    39    1
    28    16    17    1
    29    16    18    1
    30    16    40    1
    31    18    19   ar
    32    18    23   ar
    33    19    20   ar
    34    19    41    1
    35    20    21   ar
    36    20    42    1
    37    21    22   ar
    38    21    24    1
    39    22    23   ar
    40    22    43    1
    41    23    44    1
    42    24    45    1
    43    26    46    1
    44    27    47    1
    45    28    48    1
    46    29    49    1
    47    30    50    1
    48     1    31    1
    49     1    27    1
    50     2    32    1
    51     2    28    1
    52     4    34    1
    53     4    30    1
