@<TRIPOS>MOLECULE
*****
 50 53 0 0 0
SMALL
GASTEIGER

@<TRIPOS>ATOM
     1 C         -0.329803   -1.327367   1.702977 C.3        1 UNL1     0.1889
     2 C         -0.461468   -0.975665   0.196687 C.3        1 UNL1     0.1342
     3 C         -1.902625   -0.964805   -0.33568 C.3        1 UNL1     0.1174
     4 C         -2.787594   -2.024372   0.325581 C.3        1 UNL1     0.1456
     5 C         -2.63506   -2.048444   1.857416 C.3        1 UNL1     0.2326
     6 O         -1.269766   -2.265044   2.206591 O.3        1 UNL1     -0.3076
     7 O         -3.21063   -0.901429   2.508874 O.3        1 UNL1     -0.4605
     8 C         -3.719221   -1.116361   3.777206 C.ar        1 UNL1     0.1310
     9 C         -4.53422   -2.189859   4.152281 C.ar        1 UNL1     0.0226
     10 C         -4.986098   -2.329625   5.469921 C.ar        1 UNL1     0.1343
     11 C         -4.614001   -1.411299   6.450768 C.ar        1 UNL1     0.1007
     12 C         -3.834219   -0.312735   6.079445 C.ar        1 UNL1     0.1389
     13 C         -3.382167   -0.170992   4.75393 C.ar        1 UNL1     0.0229
     14 C         -4.993494   -1.556353   7.875232 C.2        1 UNL1     0.1740
     15 C         -4.32483   -0.606661   8.825245 C.3        1 UNL1     0.0520
     16 C         -4.257396   0.764852   8.167704 C.3        1 UNL1     0.1322
     17 O         -3.499643   0.707769   6.939037 O.3        1 UNL1     -0.4828
     18 C         -5.617434   1.455792   8.042711 C.ar        1 UNL1     -0.0067
     19 C         -5.997988   2.017219   6.80651 C.ar        1 UNL1     -0.0516
     20 C         -7.214046   2.697403   6.670445 C.ar        1 UNL1     -0.0198
     21 C         -8.053089   2.829061   7.762462 C.ar        1 UNL1     0.1169
     22 C         -7.721321   2.258185   8.984292 C.ar        1 UNL1     -0.0198
     23 C         -6.513793   1.562037   9.115859 C.ar        1 UNL1     -0.0516
     24 O         -9.211616   3.530757   7.601714 O.3        1 UNL1     -0.5068
     25 O         -5.741091   -2.438466   8.28931 O.2        1 UNL1     -0.2917
     26 O         -5.779112   -3.398497   5.770298 O.3        1 UNL1     -0.5058
     27 O         -0.225007   -0.188432   2.5424 O.3        1 UNL1     -0.3648
     28 O         0.269476   -1.954015   -0.565716 O.3        1 UNL1     -0.3841
     29 O         -2.461178   0.348377   -0.260158 O.3        1 UNL1     -0.3863
     30 O         -2.439207   -3.325247   -0.195994 O.3        1 UNL1     -0.3829
     31 H         0.631384   -1.839298   1.821829 H        1 UNL1     0.0937
     32 H         0.0   0.0   0.0 H        1 UNL1     0.0671
     33 H         -1.866032   -1.20511   -1.407424 H        1 UNL1     0.0649
     34 H         -3.838024   -1.847149   0.069474 H        1 UNL1     0.0683
     35 H         -3.188808   -2.944572   2.164333 H        1 UNL1     0.1085
     36 H         -4.812399   -2.967408   3.44932 H        1 UNL1     0.0691
     37 H         -2.777189   0.693838   4.490182 H        1 UNL1     0.0691
     38 H         -3.321941   -0.995621   9.031282 H        1 UNL1     0.0385
     39 H         -4.884323   -0.587409   9.76672 H        1 UNL1     0.0385
     40 H         -3.662637   1.411168   8.827293 H        1 UNL1     0.0789
     41 H         -5.35277   1.935426   5.936652 H        1 UNL1     0.0623
     42 H         -7.490795   3.136219   5.715006 H        1 UNL1     0.0654
     43 H         -8.377953   2.342334   9.842 H        1 UNL1     0.0654
     44 H         -6.291466   1.119695   10.082166 H        1 UNL1     0.0623
     45 H         -8.986717   4.438128   7.339387 H        1 UNL1     0.2921
     46 H         -5.373679   -3.910636   6.487758 H        1 UNL1     0.2922
     47 H         0.517424   0.365669   2.263781 H        1 UNL1     0.2126
     48 H         1.202324   -1.887889   -0.28437 H        1 UNL1     0.2101
     49 H         -2.023145   0.93068   -0.90113 H        1 UNL1     0.2100
     50 H         -2.673008   -3.341206   -1.147201 H        1 UNL1     0.2102
@<TRIPOS>BOND
     1     1     2    1
     2     1     6    1
     3     2     3    1
     4     3     4    1
     5     3    29    1
     6     3    33    1
     7     4     5    1
     8     5     6    1
     9     5     7    1
    10     5    35    1
    11     7     8    1
    12     8     9   ar
    13     8    13   ar
    14     9    10   ar
    15     9    36    1
    16    10    11   ar
    17    10    26    1
    18    11    12   ar
    19    11    14    1
    20    12    13   ar
    21    12    17    1
    22    13    37    1
    23    14    15    1
    24    14    25    2
    25    15    16    1
    26    15    38    1
    27    15    39    1
    28    16    17    1
    29    16    18    1
    30    16    40    1
    31    18    19   ar
    32    18    23   ar
    33    19    20   ar
    34    19    41    1
    35    20    21   ar
    36    20    42    1
    37    21    22   ar
    38    21    24    1
    39    22    23   ar
    40    22    43    1
    41    23    44    1
    42    24    45    1
    43    26    46    1
    44    27    47    1
    45    28    48    1
    46    29    49    1
    47    30    50    1
    48     1    31    1
    49     1    27    1
    50     2    32    1
    51     2    28    1
    52     4    34    1
    53     4    30    1
