@<TRIPOS>MOLECULE
*****
 50 53 0 0 0
SMALL
GASTEIGER

@<TRIPOS>ATOM
     1 C         1.404954   0.750681   -1.494452 C.3        1 UNL1     0.1889
     2 C         0.179349   -0.105863   -1.077121 C.3        1 UNL1     0.1342
     3 C         0.293078   -1.598745   -1.421841 C.3        1 UNL1     0.1174
     4 C         1.04421   -1.849844   -2.731752 C.3        1 UNL1     0.1456
     5 C         2.346066   -1.03399   -2.831342 C.3        1 UNL1     0.2326
     6 O         2.060695   0.355827   -2.690483 O.3        1 UNL1     -0.3076
     7 O         3.379469   -1.492563   -1.940776 O.3        1 UNL1     -0.4605
     8 C         4.501722   -0.688973   -1.849563 C.ar        1 UNL1     0.1310
     9 C         5.784714   -1.036248   -2.286177 C.ar        1 UNL1     0.0226
     10 C         6.856629   -0.143919   -2.165147 C.ar        1 UNL1     0.1343
     11 C         6.666348   1.12758   -1.625773 C.ar        1 UNL1     0.1007
     12 C         5.398477   1.470651   -1.148708 C.ar        1 UNL1     0.1389
     13 C         4.321412   0.572259   -1.268099 C.ar        1 UNL1     0.0229
     14 C         7.744763   2.140294   -1.551049 C.2        1 UNL1     0.1740
     15 C         7.312676   3.520613   -1.151585 C.3        1 UNL1     0.0520
     16 C         6.273517   3.398979   -0.045551 C.3        1 UNL1     0.1322
     17 O         5.123507   2.653296   -0.502172 O.3        1 UNL1     -0.4828
     18 C         6.848621   2.922842   1.290591 C.ar        1 UNL1     -0.0067
     19 C         6.714263   3.738956   2.432571 C.ar        1 UNL1     -0.0516
     20 C         7.269758   3.355305   3.65903 C.ar        1 UNL1     -0.0198
     21 C         7.966685   2.164088   3.75454 C.ar        1 UNL1     0.1169
     22 C         8.087198   1.323197   2.655806 C.ar        1 UNL1     -0.0198
     23 C         7.515965   1.697875   1.433772 C.ar        1 UNL1     -0.0516
     24 O         8.526221   1.841562   4.955913 O.3        1 UNL1     -0.5068
     25 O         8.90941   1.912365   -1.867483 O.2        1 UNL1     -0.2917
     26 O         8.083   -0.544311   -2.609316 O.3        1 UNL1     -0.5058
     27 O         2.327498   0.969484   -0.439073 O.3        1 UNL1     -0.3648
     28 O         -0.98461   0.402796   -1.754744 O.3        1 UNL1     -0.3841
     29 O         0.836406   -2.332952   -0.322811 O.3        1 UNL1     -0.3863
     30 O         0.190343   -1.498675   -3.842284 O.3        1 UNL1     -0.3829
     31 H         1.022664   1.749922   -1.72993 H        1 UNL1     0.0937
     32 H         0.0   0.0   0.0 H        1 UNL1     0.0671
     33 H         -0.724774   -1.989686   -1.559186 H        1 UNL1     0.0649
     34 H         1.276973   -2.915855   -2.830962 H        1 UNL1     0.0683
     35 H         2.676538   -1.188465   -3.866139 H        1 UNL1     0.1085
     36 H         5.985827   -1.988226   -2.765147 H        1 UNL1     0.0691
     37 H         3.344462   0.862979   -0.887909 H        1 UNL1     0.0691
     38 H         6.890632   4.005187   -2.038485 H        1 UNL1     0.0385
     39 H         8.190444   4.093613   -0.833823 H        1 UNL1     0.0385
     40 H         5.886879   4.40875   0.14782 H        1 UNL1     0.0789
     41 H         6.179724   4.683042   2.381395 H        1 UNL1     0.0623
     42 H         7.169557   3.99892   4.529507 H        1 UNL1     0.0654
     43 H         8.61795   0.381039   2.723273 H        1 UNL1     0.0654
     44 H         7.620453   1.011713   0.598842 H        1 UNL1     0.0623
     45 H         8.06905   1.060394   5.307322 H        1 UNL1     0.2921
     46 H         8.747164   -0.37404   -1.922799 H        1 UNL1     0.2922
     47 H         3.075285   1.497392   -0.752103 H        1 UNL1     0.2126
     48 H         -1.03633   1.355236   -1.545185 H        1 UNL1     0.2101
     49 H         1.78711   -2.473575   -0.457651 H        1 UNL1     0.2100
     50 H         0.678386   -0.866614   -4.409757 H        1 UNL1     0.2102
@<TRIPOS>BOND
     1     1     2    1
     2     1     6    1
     3     2     3    1
     4     3     4    1
     5     3    29    1
     6     3    33    1
     7     4     5    1
     8     5     6    1
     9     5     7    1
    10     5    35    1
    11     7     8    1
    12     8     9   ar
    13     8    13   ar
    14     9    10   ar
    15     9    36    1
    16    10    11   ar
    17    10    26    1
    18    11    12   ar
    19    11    14    1
    20    12    13   ar
    21    12    17    1
    22    13    37    1
    23    14    15    1
    24    14    25    2
    25    15    16    1
    26    15    38    1
    27    15    39    1
    28    16    17    1
    29    16    18    1
    30    16    40    1
    31    18    19   ar
    32    18    23   ar
    33    19    20   ar
    34    19    41    1
    35    20    21   ar
    36    20    42    1
    37    21    22   ar
    38    21    24    1
    39    22    23   ar
    40    22    43    1
    41    23    44    1
    42    24    45    1
    43    26    46    1
    44    27    47    1
    45    28    48    1
    46    29    49    1
    47    30    50    1
    48     1    31    1
    49     1    27    1
    50     2    32    1
    51     2    28    1
    52     4    34    1
    53     4    30    1
