@<TRIPOS>MOLECULE
*****
 50 53 0 0 0
SMALL
GASTEIGER

@<TRIPOS>ATOM
     1 C         0.846488   0.579639   1.928285 C.3        1 UNL1     0.1889
     2 C         -0.347695   0.429241   0.947852 C.3        1 UNL1     0.1342
     3 C         -1.108042   1.732592   0.658695 C.3        1 UNL1     0.1174
     4 C         -1.172889   2.66356   1.872042 C.3        1 UNL1     0.1456
     5 C         0.190526   2.819252   2.570054 C.3        1 UNL1     0.2326
     6 O         0.685133   1.540512   2.961282 O.3        1 UNL1     -0.3076
     7 O         1.141103   3.584393   1.80698 O.3        1 UNL1     -0.4605
     8 C         2.464157   3.198029   1.924368 C.ar        1 UNL1     0.1310
     9 C         3.52895   3.716764   1.179766 C.ar        1 UNL1     0.0226
     10 C         4.840201   3.271165   1.384615 C.ar        1 UNL1     0.1343
     11 C         5.12197   2.312167   2.356609 C.ar        1 UNL1     0.1007
     12 C         4.061674   1.75705   3.077998 C.ar        1 UNL1     0.1389
     13 C         2.742972   2.203359   2.869997 C.ar        1 UNL1     0.0229
     14 C         6.498721   1.866345   2.672763 C.2        1 UNL1     0.1740
     15 C         6.637411   1.001245   3.890923 C.3        1 UNL1     0.0520
     16 C         5.470159   0.024301   3.923485 C.3        1 UNL1     0.1322
     17 O         4.211484   0.730981   3.981882 O.3        1 UNL1     -0.4828
     18 C         5.541127   -1.056776   2.8423 C.ar        1 UNL1     -0.0067
     19 C         6.550616   -2.038885   2.910171 C.ar        1 UNL1     -0.0516
     20 C         6.672933   -3.013408   1.912519 C.ar        1 UNL1     -0.0198
     21 C         5.798526   -3.012113   0.840494 C.ar        1 UNL1     0.1169
     22 C         4.773388   -2.078348   0.762945 C.ar        1 UNL1     -0.0198
     23 C         4.639424   -1.114993   1.769949 C.ar        1 UNL1     -0.0516
     24 O         5.971906   -3.953429   -0.131238 O.3        1 UNL1     -0.5068
     25 O         7.488698   2.23125   2.044054 O.2        1 UNL1     -0.2917
     26 O         5.833369   3.816676   0.624603 O.3        1 UNL1     -0.5058
     27 O         2.099214   0.716616   1.276594 O.3        1 UNL1     -0.3648
     28 O         -1.289924   -0.499413   1.515754 O.3        1 UNL1     -0.3841
     29 O         -0.586323   2.376357   -0.505568 O.3        1 UNL1     -0.3863
     30 O         -2.123655   2.13686   2.823 O.3        1 UNL1     -0.3829
     31 H         0.927071   -0.368591   2.470912 H        1 UNL1     0.0937
     32 H         0.0   0.0   -0.0 H        1 UNL1     0.0671
     33 H         -2.144125   1.467376   0.405885 H        1 UNL1     0.0649
     34 H         -1.537838   3.650569   1.567039 H        1 UNL1     0.0683
     35 H         -0.045095   3.365764   3.491839 H        1 UNL1     0.1085
     36 H         3.383155   4.504241   0.448504 H        1 UNL1     0.0691
     37 H         1.935062   1.754377   3.443746 H        1 UNL1     0.0691
     38 H         6.626834   1.658582   4.766893 H        1 UNL1     0.0385
     39 H         7.605168   0.489171   3.859213 H        1 UNL1     0.0385
     40 H         5.526455   -0.515596   4.8784 H        1 UNL1     0.0789
     41 H         7.25506   -2.055824   3.736683 H        1 UNL1     0.0623
     42 H         7.462915   -3.758144   1.970025 H        1 UNL1     0.0654
     43 H         4.073848   -2.077493   -0.064433 H        1 UNL1     0.0654
     44 H         3.820609   -0.407341   1.682684 H        1 UNL1     0.0623
     45 H         5.830129   -4.829806   0.261926 H        1 UNL1     0.2921
     46 H         6.638683   3.282749   0.712947 H        1 UNL1     0.2922
     47 H         2.276946   1.648075   1.085136 H        1 UNL1     0.2126
     48 H         -2.177907   -0.118037   1.375147 H        1 UNL1     0.2101
     49 H         -0.345748   1.711589   -1.170399 H        1 UNL1     0.2100
     50 H         -2.663264   1.458923   2.365904 H        1 UNL1     0.2102
@<TRIPOS>BOND
     1     1     2    1
     2     1     6    1
     3     2     3    1
     4     3     4    1
     5     3    29    1
     6     3    33    1
     7     4     5    1
     8     5     6    1
     9     5     7    1
    10     5    35    1
    11     7     8    1
    12     8     9   ar
    13     8    13   ar
    14     9    10   ar
    15     9    36    1
    16    10    11   ar
    17    10    26    1
    18    11    12   ar
    19    11    14    1
    20    12    13   ar
    21    12    17    1
    22    13    37    1
    23    14    15    1
    24    14    25    2
    25    15    16    1
    26    15    38    1
    27    15    39    1
    28    16    17    1
    29    16    18    1
    30    16    40    1
    31    18    19   ar
    32    18    23   ar
    33    19    20   ar
    34    19    41    1
    35    20    21   ar
    36    20    42    1
    37    21    22   ar
    38    21    24    1
    39    22    23   ar
    40    22    43    1
    41    23    44    1
    42    24    45    1
    43    26    46    1
    44    27    47    1
    45    28    48    1
    46    29    49    1
    47    30    50    1
    48     1    31    1
    49     1    27    1
    50     2    32    1
    51     2    28    1
    52     4    34    1
    53     4    30    1
