@<TRIPOS>MOLECULE
*****
 50 53 0 0 0
SMALL
GASTEIGER

@<TRIPOS>ATOM
     1 C         -0.330164   -1.327123   1.703097 C.3        1 UNL1     0.1889
     2 C         -0.461566   -0.975609   0.19674 C.3        1 UNL1     0.1342
     3 C         -1.902637   -0.964721   -0.335858 C.3        1 UNL1     0.1174
     4 C         -2.787783   -2.024141   0.325399 C.3        1 UNL1     0.1456
     5 C         -2.635495   -2.048024   1.857261 C.3        1 UNL1     0.2326
     6 O         -1.270271   -2.26467   2.206683 O.3        1 UNL1     -0.3076
     7 O         -3.211091   -0.900886   2.508479 O.3        1 UNL1     -0.4605
     8 C         -3.7199   -1.115618   3.776758 C.ar        1 UNL1     0.1310
     9 C         -4.535031   -2.189012   4.151842 C.ar        1 UNL1     0.0226
     10 C         -4.987129   -2.328576   5.469428 C.ar        1 UNL1     0.1343
     11 C         -4.615127   -1.410147   6.450215 C.ar        1 UNL1     0.1007
     12 C         -3.835211   -0.311684   6.078873 C.ar        1 UNL1     0.1389
     13 C         -3.382938   -0.170144   4.753412 C.ar        1 UNL1     0.0229
     14 C         -4.994857   -1.55499   7.874637 C.2        1 UNL1     0.1740
     15 C         -4.326281   -0.60522   8.824633 C.3        1 UNL1     0.0520
     16 C         -4.258649   0.766204   8.166924 C.3        1 UNL1     0.1322
     17 O         -3.500704   0.708909   6.938386 O.3        1 UNL1     -0.4828
     18 C         -5.61862   1.457218   8.041624 C.ar        1 UNL1     -0.0067
     19 C         -5.998939   2.018511   6.805289 C.ar        1 UNL1     -0.0516
     20 C         -7.21493   2.698759   6.668941 C.ar        1 UNL1     -0.0198
     21 C         -8.054138   2.830616   7.760807 C.ar        1 UNL1     0.1169
     22 C         -7.722604   2.259876   8.982764 C.ar        1 UNL1     -0.0198
     23 C         -6.515143   1.563665   9.114615 C.ar        1 UNL1     -0.0516
     24 O         -9.212591   3.532369   7.599783 O.3        1 UNL1     -0.5068
     25 O         -5.74258   -2.436998   8.28871 O.2        1 UNL1     -0.2917
     26 O         -5.780263   -3.397355   5.769817 O.3        1 UNL1     -0.5058
     27 O         -0.225426   -0.188086   2.542389 O.3        1 UNL1     -0.3648
     28 O         0.269435   -1.954107   -0.565418 O.3        1 UNL1     -0.3841
     29 O         -2.461113   0.348509   -0.260597 O.3        1 UNL1     -0.3863
     30 O         -2.4394   -3.325107   -0.195951 O.3        1 UNL1     -0.3829
     31 H         0.630969   -1.839104   1.82217 H        1 UNL1     0.0937
     32 H         0.0   0.0   0.0 H        1 UNL1     0.0671
     33 H         -1.865888   -1.205167   -1.407565 H        1 UNL1     0.0649
     34 H         -3.838159   -1.846881   0.069102 H        1 UNL1     0.0683
     35 H         -3.189352   -2.944074   2.164207 H        1 UNL1     0.1085
     36 H         -4.81315   -2.966634   3.448938 H        1 UNL1     0.0691
     37 H         -2.777859   0.694611   4.489648 H        1 UNL1     0.0691
     38 H         -3.323451   -0.99422   9.030881 H        1 UNL1     0.0385
     39 H         -4.885922   -0.585807   9.766017 H        1 UNL1     0.0385
     40 H         -3.663952   1.412565   8.826524 H        1 UNL1     0.0789
     41 H         -5.353587   1.936561   5.935544 H        1 UNL1     0.0623
     42 H         -7.491495   3.137469   5.713401 H        1 UNL1     0.0654
     43 H         -8.379367   2.344182   9.840357 H        1 UNL1     0.0654
     44 H         -6.293   1.121433   10.081015 H        1 UNL1     0.0623
     45 H         -8.98759   4.43969   7.337373 H        1 UNL1     0.2921
     46 H         -5.374979   -3.909428   6.487409 H        1 UNL1     0.2922
     47 H         0.517087   0.365929   2.263816 H        1 UNL1     0.2126
     48 H         1.202302   -1.887763   -0.284188 H        1 UNL1     0.2101
     49 H         -2.022998   0.930677   -0.901635 H        1 UNL1     0.2100
     50 H         -2.673051   -3.341175   -1.147193 H        1 UNL1     0.2102
@<TRIPOS>BOND
     1     1     2    1
     2     1     6    1
     3     2     3    1
     4     3     4    1
     5     3    29    1
     6     3    33    1
     7     4     5    1
     8     5     6    1
     9     5     7    1
    10     5    35    1
    11     7     8    1
    12     8     9   ar
    13     8    13   ar
    14     9    10   ar
    15     9    36    1
    16    10    11   ar
    17    10    26    1
    18    11    12   ar
    19    11    14    1
    20    12    13   ar
    21    12    17    1
    22    13    37    1
    23    14    15    1
    24    14    25    2
    25    15    16    1
    26    15    38    1
    27    15    39    1
    28    16    17    1
    29    16    18    1
    30    16    40    1
    31    18    19   ar
    32    18    23   ar
    33    19    20   ar
    34    19    41    1
    35    20    21   ar
    36    20    42    1
    37    21    22   ar
    38    21    24    1
    39    22    23   ar
    40    22    43    1
    41    23    44    1
    42    24    45    1
    43    26    46    1
    44    27    47    1
    45    28    48    1
    46    29    49    1
    47    30    50    1
    48     1    31    1
    49     1    27    1
    50     2    32    1
    51     2    28    1
    52     4    34    1
    53     4    30    1
