@<TRIPOS>MOLECULE
*****
 50 53 0 0 0
SMALL
GASTEIGER

@<TRIPOS>ATOM
     1 C         -0.560061   -1.409891   1.571415 C.3        1 UNL1     0.1889
     2 C         -0.57508   -0.929385   0.095329 C.3        1 UNL1     0.1342
     3 C         -1.977202   -0.713813   -0.494628 C.3        1 UNL1     0.1174
     4 C         -3.005658   -1.714441   0.038418 C.3        1 UNL1     0.1456
     5 C         -2.935326   -1.874783   1.568028 C.3        1 UNL1     0.2326
     6 O         -1.621676   -2.271284   1.955303 O.3        1 UNL1     -0.3076
     7 O         -3.41432   -0.724107   2.287631 O.3        1 UNL1     -0.4605
     8 C         -4.007682   -0.978036   3.511138 C.ar        1 UNL1     0.1310
     9 C         -4.953553   -1.978125   3.761038 C.ar        1 UNL1     0.0226
     10 C         -5.484905   -2.16787   5.042273 C.ar        1 UNL1     0.1343
     11 C         -5.065123   -1.376781   6.110825 C.ar        1 UNL1     0.1007
     12 C         -4.151655   -0.348163   5.865257 C.ar        1 UNL1     0.1389
     13 C         -3.619511   -0.155867   4.576352 C.ar        1 UNL1     0.0229
     14 C         -5.530671   -1.588283   7.501036 C.2        1 UNL1     0.1740
     15 C         -4.811484   -0.79735   8.554005 C.3        1 UNL1     0.0520
     16 C         -4.560562   0.604659   8.016076 C.3        1 UNL1     0.1322
     17 O         -3.751712   0.557822   6.819983 O.3        1 UNL1     -0.4828
     18 C         -5.828487   1.452952   7.891626 C.ar        1 UNL1     -0.0067
     19 C         -6.081412   2.148389   6.691372 C.ar        1 UNL1     -0.0516
     20 C         -7.207027   2.970568   6.56108 C.ar        1 UNL1     -0.0198
     21 C         -8.0814   3.11112   7.623881 C.ar        1 UNL1     0.1169
     22 C         -7.877202   2.412973   8.806984 C.ar        1 UNL1     -0.0198
     23 C         -6.761573   1.5763   8.931112 C.ar        1 UNL1     -0.0516
     24 O         -9.146284   3.950004   7.473228 O.3        1 UNL1     -0.5068
     25 O         -6.390658   -2.409482   7.808507 O.2        1 UNL1     -0.2917
     26 O         -6.404621   -3.160057   5.219111 O.3        1 UNL1     -0.5058
     27 O         -0.374199   -0.358978   2.506201 O.3        1 UNL1     -0.3648
     28 O         0.082315   -1.92198   -0.714172 O.3        1 UNL1     -0.3841
     29 O         -2.391601   0.644342   -0.333939 O.3        1 UNL1     -0.3863
     30 O         -2.77569   -3.001868   -0.574231 O.3        1 UNL1     -0.3829
     31 H         0.331875   -2.035179   1.687789 H        1 UNL1     0.0937
     32 H         0.0   0.0   0.0 H        1 UNL1     0.0671
     33 H         -1.912331   -0.872582   -1.580125 H        1 UNL1     0.0649
     34 H         -4.015836   -1.399883   -0.246178 H        1 UNL1     0.0683
     35 H         -3.598935   -2.723502   1.775821 H        1 UNL1     0.1085
     36 H         -5.278907   -2.662047   2.984818 H        1 UNL1     0.0691
     37 H         -2.910687   0.652684   4.411103 H        1 UNL1     0.0691
     38 H         -3.86914   -1.312347   8.769157 H        1 UNL1     0.0385
     39 H         -5.41297   -0.788113   9.469378 H        1 UNL1     0.0385
     40 H         -3.933113   1.126077   8.75157 H        1 UNL1     0.0789
     41 H         -5.405353   2.061915   5.845727 H        1 UNL1     0.0623
     42 H         -7.384724   3.510942   5.634564 H        1 UNL1     0.0654
     43 H         -8.563711   2.504021   9.640246 H        1 UNL1     0.0654
     44 H         -6.638841   1.037757   9.86586 H        1 UNL1     0.0623
     45 H         -8.810152   4.843805   7.297583 H        1 UNL1     0.2921
     46 H         -6.095519   -3.768547   5.908755 H        1 UNL1     0.2922
     47 H         0.437685   0.127477   2.306036 H        1 UNL1     0.2126
     48 H         1.001449   -1.98337   -0.389894 H        1 UNL1     0.2101
     49 H         -1.860202   1.221322   -0.905344 H        1 UNL1     0.2100
     50 H         -2.960814   -2.917147   -1.532492 H        1 UNL1     0.2102
@<TRIPOS>BOND
     1     1     2    1
     2     1     6    1
     3     2     3    1
     4     3     4    1
     5     3    29    1
     6     3    33    1
     7     4     5    1
     8     5     6    1
     9     5     7    1
    10     5    35    1
    11     7     8    1
    12     8     9   ar
    13     8    13   ar
    14     9    10   ar
    15     9    36    1
    16    10    11   ar
    17    10    26    1
    18    11    12   ar
    19    11    14    1
    20    12    13   ar
    21    12    17    1
    22    13    37    1
    23    14    15    1
    24    14    25    2
    25    15    16    1
    26    15    38    1
    27    15    39    1
    28    16    17    1
    29    16    18    1
    30    16    40    1
    31    18    19   ar
    32    18    23   ar
    33    19    20   ar
    34    19    41    1
    35    20    21   ar
    36    20    42    1
    37    21    22   ar
    38    21    24    1
    39    22    23   ar
    40    22    43    1
    41    23    44    1
    42    24    45    1
    43    26    46    1
    44    27    47    1
    45    28    48    1
    46    29    49    1
    47    30    50    1
    48     1    31    1
    49     1    27    1
    50     2    32    1
    51     2    28    1
    52     4    34    1
    53     4    30    1
