@<TRIPOS>MOLECULE
*****
 50 53 0 0 0
SMALL
GASTEIGER

@<TRIPOS>ATOM
     1 C         -0.350367   -1.338493   1.690114 C.3        1 UNL1     0.1889
     2 C         -0.471607   -0.972858   0.186268 C.3        1 UNL1     0.1342
     3 C         -1.910075   -0.943804   -0.352648 C.3        1 UNL1     0.1174
     4 C         -2.808139   -2.000449   0.295502 C.3        1 UNL1     0.1456
     5 C         -2.66305   -2.038895   1.827766 C.3        1 UNL1     0.2326
     6 O         -1.301526   -2.271405   2.181404 O.3        1 UNL1     -0.3076
     7 O         -3.230792   -0.891997   2.486261 O.3        1 UNL1     -0.4605
     8 C         -3.754578   -1.114472   3.747086 C.ar        1 UNL1     0.1310
     9 C         -4.58651   -2.181746   4.102213 C.ar        1 UNL1     0.0226
     10 C         -5.053148   -2.330318   5.413731 C.ar        1 UNL1     0.1343
     11 C         -4.679449   -1.42755   6.408317 C.ar        1 UNL1     0.1007
     12 C         -3.882455   -0.334813   6.056875 C.ar        1 UNL1     0.1389
     13 C         -3.415541   -0.184181   4.737507 C.ar        1 UNL1     0.0229
     14 C         -5.074836   -1.583488   7.827297 C.2        1 UNL1     0.1740
     15 C         -4.403913   -0.652731   8.794304 C.3        1 UNL1     0.0520
     16 C         -4.312951   0.724974   8.152733 C.3        1 UNL1     0.1322
     17 O         -3.543802   0.671919   6.930987 O.3        1 UNL1     -0.4828
     18 C         -5.663009   1.434204   8.022113 C.ar        1 UNL1     -0.0067
     19 C         -6.016696   2.029275   6.793695 C.ar        1 UNL1     -0.0516
     20 C         -7.222737   2.726372   6.654109 C.ar        1 UNL1     -0.0198
     21 C         -8.07835   2.841528   7.735077 C.ar        1 UNL1     0.1169
     22 C         -7.773303   2.237913   8.948104 C.ar        1 UNL1     -0.0198
     23 C         -6.575892   1.525064   9.082671 C.ar        1 UNL1     -0.0516
     24 O         -9.226221   3.56006   7.572279 O.3        1 UNL1     -0.5068
     25 O         -5.83739   -2.460676   8.224209 O.2        1 UNL1     -0.2917
     26 O         -5.862299   -3.392422   5.694435 O.3        1 UNL1     -0.5058
     27 O         -0.238743   -0.207729   2.539642 O.3        1 UNL1     -0.3648
     28 O         0.253621   -1.951646   -0.581017 O.3        1 UNL1     -0.3841
     29 O         -2.456517   0.373946   -0.268575 O.3        1 UNL1     -0.3863
     30 O         -2.469635   -3.300131   -0.235472 O.3        1 UNL1     -0.3829
     31 H         0.605359   -1.860525   1.809064 H        1 UNL1     0.0937
     32 H         0.0   0.0   0.0 H        1 UNL1     0.0671
     33 H         -1.870716   -1.175394   -1.426211 H        1 UNL1     0.0649
     34 H         -3.855627   -1.811092   0.036052 H        1 UNL1     0.0683
     35 H         -3.226696   -2.932274   2.124507 H        1 UNL1     0.1085
     36 H         -4.867316   -2.947984   3.387967 H        1 UNL1     0.0691
     37 H         -2.797296   0.675859   4.489319 H        1 UNL1     0.0691
     38 H         -3.40802   -1.056446   9.005817 H        1 UNL1     0.0385
     39 H         -4.972445   -0.636826   9.730412 H        1 UNL1     0.0385
     40 H         -3.716802   1.356513   8.825254 H        1 UNL1     0.0789
     41 H         -5.358019   1.960882   5.932813 H        1 UNL1     0.0623
     42 H         -7.47867   3.190989   5.705088 H        1 UNL1     0.0654
     43 H         -8.443163   2.309082   9.796711 H        1 UNL1     0.0654
     44 H         -6.374589   1.057284   10.041579 H        1 UNL1     0.0623
     45 H         -8.986847   4.473033   7.344469 H        1 UNL1     0.2921
     46 H         -5.471599   -3.916087   6.411749 H        1 UNL1     0.2922
     47 H         0.50421   0.346735   2.263147 H        1 UNL1     0.2126
     48 H         1.189256   -1.882332   -0.309881 H        1 UNL1     0.2101
     49 H         -2.015879   0.955381   -0.908548 H        1 UNL1     0.2100
     50 H         -2.704339   -3.307732   -1.18656 H        1 UNL1     0.2102
@<TRIPOS>BOND
     1     1     2    1
     2     1     6    1
     3     2     3    1
     4     3     4    1
     5     3    29    1
     6     3    33    1
     7     4     5    1
     8     5     6    1
     9     5     7    1
    10     5    35    1
    11     7     8    1
    12     8     9   ar
    13     8    13   ar
    14     9    10   ar
    15     9    36    1
    16    10    11   ar
    17    10    26    1
    18    11    12   ar
    19    11    14    1
    20    12    13   ar
    21    12    17    1
    22    13    37    1
    23    14    15    1
    24    14    25    2
    25    15    16    1
    26    15    38    1
    27    15    39    1
    28    16    17    1
    29    16    18    1
    30    16    40    1
    31    18    19   ar
    32    18    23   ar
    33    19    20   ar
    34    19    41    1
    35    20    21   ar
    36    20    42    1
    37    21    22   ar
    38    21    24    1
    39    22    23   ar
    40    22    43    1
    41    23    44    1
    42    24    45    1
    43    26    46    1
    44    27    47    1
    45    28    48    1
    46    29    49    1
    47    30    50    1
    48     1    31    1
    49     1    27    1
    50     2    32    1
    51     2    28    1
    52     4    34    1
    53     4    30    1
