@<TRIPOS>MOLECULE
*****
 50 53 0 0 0
SMALL
GASTEIGER

@<TRIPOS>ATOM
     1 C         -0.713137   0.188325   -2.055912 C.3        1 UNL1     0.1889
     2 C         -0.426053   0.775969   -0.648006 C.3        1 UNL1     0.1342
     3 C         -1.646623   1.396332   0.049004 C.3        1 UNL1     0.1174
     4 C         -2.605733   2.078641   -0.929608 C.3        1 UNL1     0.1456
     5 C         -2.90432   1.210444   -2.165505 C.3        1 UNL1     0.2326
     6 O         -1.687741   0.873742   -2.828406 O.3        1 UNL1     -0.3076
     7 O         -3.726897   0.065391   -1.876468 O.3        1 UNL1     -0.4605
     8 C         -3.398037   -0.644894   -0.735909 C.ar        1 UNL1     0.1310
     9 C         -2.233021   -1.39895   -0.558603 C.ar        1 UNL1     0.0226
     10 C         -1.981749   -2.070829   0.643621 C.ar        1 UNL1     0.1343
     11 C         -2.879043   -1.985395   1.707296 C.ar        1 UNL1     0.1007
     12 C         -4.065394   -1.269058   1.527804 C.ar        1 UNL1     0.1389
     13 C         -4.319059   -0.59575   0.317952 C.ar        1 UNL1     0.0229
     14 C         -2.623889   -2.605862   3.027929 C.2        1 UNL1     0.1740
     15 C         -3.582484   -2.228215   4.118813 C.3        1 UNL1     0.0520
     16 C         -4.986627   -2.183107   3.532036 C.3        1 UNL1     0.1322
     17 O         -5.066985   -1.208395   2.468762 O.3        1 UNL1     -0.4828
     18 C         -5.549197   -3.560701   3.173604 C.ar        1 UNL1     -0.0067
     19 C         -6.385747   -4.227528   4.092156 C.ar        1 UNL1     -0.0516
     20 C         -6.878684   -5.508433   3.81601 C.ar        1 UNL1     -0.0198
     21 C         -6.537161   -6.134815   2.630752 C.ar        1 UNL1     0.1169
     22 C         -5.742534   -5.490246   1.691637 C.ar        1 UNL1     -0.0198
     23 C         -5.264518   -4.201897   1.959429 C.ar        1 UNL1     -0.0516
     24 O         -7.005229   -7.397334   2.413133 O.3        1 UNL1     -0.5068
     25 O         -1.653548   -3.321273   3.262684 O.2        1 UNL1     -0.2917
     26 O         -0.82735   -2.79   0.751972 O.3        1 UNL1     -0.5058
     27 O         -0.940829   -1.211991   -2.048378 O.3        1 UNL1     -0.3648
     28 O         0.564687   1.812221   -0.779621 O.3        1 UNL1     -0.3841
     29 O         -2.297497   0.435111   0.882401 O.3        1 UNL1     -0.3863
     30 O         -2.026411   3.326726   -1.368196 O.3        1 UNL1     -0.3829
     31 H         0.206608   0.308835   -2.638685 H        1 UNL1     0.0937
     32 H         0.0   0.0   0.0 H        1 UNL1     0.0671
     33 H         -1.282196   2.175924   0.732487 H        1 UNL1     0.0649
     34 H         -3.546168   2.322274   -0.423025 H        1 UNL1     0.0683
     35 H         -3.456301   1.882915   -2.83407 H        1 UNL1     0.1085
     36 H         -1.470156   -1.458966   -1.32708 H        1 UNL1     0.0691
     37 H         -5.250649   -0.045826   0.202989 H        1 UNL1     0.0691
     38 H         -3.281506   -1.246118   4.498847 H        1 UNL1     0.0385
     39 H         -3.498601   -2.951886   4.936763 H        1 UNL1     0.0385
     40 H         -5.65175   -1.792037   4.313826 H        1 UNL1     0.0789
     41 H         -6.660964   -3.760984   5.033562 H        1 UNL1     0.0623
     42 H         -7.513217   -6.017056   4.537593 H        1 UNL1     0.0654
     43 H         -5.481282   -5.965538   0.753684 H        1 UNL1     0.0654
     44 H         -4.654929   -3.723871   1.198681 H        1 UNL1     0.0623
     45 H         -7.941615   -7.425493   2.668288 H        1 UNL1     0.2921
     46 H         -0.144817   -2.2446   1.17399 H        1 UNL1     0.2922
     47 H         -0.204716   -1.67319   -2.474163 H        1 UNL1     0.2126
     48 H         0.612223   2.265082   0.084318 H        1 UNL1     0.2101
     49 H         -2.564392   0.849857   1.718192 H        1 UNL1     0.2100
     50 H         -1.241418   3.507188   -0.810583 H        1 UNL1     0.2102
@<TRIPOS>BOND
     1     1     2    1
     2     1     6    1
     3     2     3    1
     4     3     4    1
     5     3    29    1
     6     3    33    1
     7     4     5    1
     8     5     6    1
     9     5     7    1
    10     5    35    1
    11     7     8    1
    12     8     9   ar
    13     8    13   ar
    14     9    10   ar
    15     9    36    1
    16    10    11   ar
    17    10    26    1
    18    11    12   ar
    19    11    14    1
    20    12    13   ar
    21    12    17    1
    22    13    37    1
    23    14    15    1
    24    14    25    2
    25    15    16    1
    26    15    38    1
    27    15    39    1
    28    16    17    1
    29    16    18    1
    30    16    40    1
    31    18    19   ar
    32    18    23   ar
    33    19    20   ar
    34    19    41    1
    35    20    21   ar
    36    20    42    1
    37    21    22   ar
    38    21    24    1
    39    22    23   ar
    40    22    43    1
    41    23    44    1
    42    24    45    1
    43    26    46    1
    44    27    47    1
    45    28    48    1
    46    29    49    1
    47    30    50    1
    48     1    31    1
    49     1    27    1
    50     2    32    1
    51     2    28    1
    52     4    34    1
    53     4    30    1
