@<TRIPOS>MOLECULE
*****
 50 53 0 0 0
SMALL
GASTEIGER

@<TRIPOS>ATOM
     1 C         -0.178436   2.073643   -0.662548 C.3        1 UNL1     0.1889
     2 C         -0.11563   0.993511   0.450696 C.3        1 UNL1     0.1342
     3 C         -1.325943   0.976741   1.396913 C.3        1 UNL1     0.1174
     4 C         -1.893185   2.373972   1.659781 C.3        1 UNL1     0.1456
     5 C         -2.058235   3.196454   0.368795 C.3        1 UNL1     0.2326
     6 O         -0.806858   3.296422   -0.307172 O.3        1 UNL1     -0.3076
     7 O         -3.122864   2.726603   -0.478037 O.3        1 UNL1     -0.4605
     8 C         -3.319673   1.35757   -0.501295 C.ar        1 UNL1     0.1310
     9 C         -3.781674   0.586978   0.571107 C.ar        1 UNL1     0.0226
     10 C         -3.96511   -0.795011   0.443203 C.ar        1 UNL1     0.1343
     11 C         -3.713404   -1.436903   -0.768597 C.ar        1 UNL1     0.1007
     12 C         -3.212614   -0.684622   -1.834462 C.ar        1 UNL1     0.1389
     13 C         -3.025742   0.704514   -1.704807 C.ar        1 UNL1     0.0229
     14 C         -3.969664   -2.879842   -0.984027 C.2        1 UNL1     0.1740
     15 C         -3.856169   -3.354684   -2.402897 C.3        1 UNL1     0.0520
     16 C         -2.660993   -2.666005   -3.047283 C.3        1 UNL1     0.1322
     17 O         -2.829077   -1.231183   -3.037141 O.3        1 UNL1     -0.4828
     18 C         -1.310089   -3.150226   -2.515012 C.ar        1 UNL1     -0.0067
     19 C         -0.96476   -4.511729   -2.63859 C.ar        1 UNL1     -0.0516
     20 C         0.242026   -4.996601   -2.120392 C.ar        1 UNL1     -0.0198
     21 C         1.106716   -4.133483   -1.471419 C.ar        1 UNL1     0.1169
     22 C         0.809878   -2.781056   -1.363402 C.ar        1 UNL1     -0.0198
     23 C         -0.388363   -2.292437   -1.897747 C.ar        1 UNL1     -0.0516
     24 O         2.255205   -4.648961   -0.946391 O.3        1 UNL1     -0.5068
     25 O         -4.331399   -3.642829   -0.092127 O.2        1 UNL1     -0.2917
     26 O         -4.41719   -1.489131   1.527364 O.3        1 UNL1     -0.5058
     27 O         -0.657698   1.579679   -1.90315 O.3        1 UNL1     -0.3648
     28 O         1.05369   1.235025   1.2551 O.3        1 UNL1     -0.3841
     29 O         -2.316316   0.054869   0.937078 O.3        1 UNL1     -0.3863
     30 O         -1.007888   3.084391   2.552665 O.3        1 UNL1     -0.3829
     31 H         0.855818   2.368434   -0.871103 H        1 UNL1     0.0937
     32 H         0.0   -0.0   0.0 H        1 UNL1     0.0671
     33 H         -0.988582   0.583224   2.365959 H        1 UNL1     0.0649
     34 H         -2.862276   2.295242   2.164821 H        1 UNL1     0.0683
     35 H         -2.308763   4.202973   0.726615 H        1 UNL1     0.1085
     36 H         -4.048351   1.035   1.522043 H        1 UNL1     0.0691
     37 H         -2.63364   1.267361   -2.549172 H        1 UNL1     0.0691
     38 H         -4.787439   -3.091471   -2.915714 H        1 UNL1     0.0385
     39 H         -3.758575   -4.445651   -2.409574 H        1 UNL1     0.0385
     40 H         -2.667351   -2.935654   -4.112069 H        1 UNL1     0.0789
     41 H         -1.630602   -5.211232   -3.135581 H        1 UNL1     0.0623
     42 H         0.491515   -6.050857   -2.211553 H        1 UNL1     0.0654
     43 H         1.48681   -2.093571   -0.870414 H        1 UNL1     0.0654
     44 H         -0.583153   -1.228379   -1.804572 H        1 UNL1     0.0623
     45 H         2.394996   -5.53281   -1.323202 H        1 UNL1     0.2921
     46 H         -5.327806   -1.220171   1.726988 H        1 UNL1     0.2922
     47 H         -0.239517   2.052881   -2.635997 H        1 UNL1     0.2126
     48 H         0.804742   1.034254   2.17784 H        1 UNL1     0.2101
     49 H         -3.108781   0.116959   1.493798 H        1 UNL1     0.2100
     50 H         -0.091437   2.962464   2.228683 H        1 UNL1     0.2102
@<TRIPOS>BOND
     1     1     2    1
     2     1     6    1
     3     2     3    1
     4     3     4    1
     5     3    29    1
     6     3    33    1
     7     4     5    1
     8     5     6    1
     9     5     7    1
    10     5    35    1
    11     7     8    1
    12     8     9   ar
    13     8    13   ar
    14     9    10   ar
    15     9    36    1
    16    10    11   ar
    17    10    26    1
    18    11    12   ar
    19    11    14    1
    20    12    13   ar
    21    12    17    1
    22    13    37    1
    23    14    15    1
    24    14    25    2
    25    15    16    1
    26    15    38    1
    27    15    39    1
    28    16    17    1
    29    16    18    1
    30    16    40    1
    31    18    19   ar
    32    18    23   ar
    33    19    20   ar
    34    19    41    1
    35    20    21   ar
    36    20    42    1
    37    21    22   ar
    38    21    24    1
    39    22    23   ar
    40    22    43    1
    41    23    44    1
    42    24    45    1
    43    26    46    1
    44    27    47    1
    45    28    48    1
    46    29    49    1
    47    30    50    1
    48     1    31    1
    49     1    27    1
    50     2    32    1
    51     2    28    1
    52     4    34    1
    53     4    30    1
