@<TRIPOS>MOLECULE
*****
 50 53 0 0 0
SMALL
GASTEIGER

@<TRIPOS>ATOM
     1 C         1.811988   -0.650481   -1.031687 C.3        1 UNL1     0.1889
     2 C         0.274039   -0.45107   -0.961769 C.3        1 UNL1     0.1342
     3 C         -0.54868   -1.73229   -1.166891 C.3        1 UNL1     0.1174
     4 C         0.094971   -2.697408   -2.165579 C.3        1 UNL1     0.1456
     5 C         1.599719   -2.896639   -1.907889 C.3        1 UNL1     0.2326
     6 O         2.269648   -1.638537   -1.943108 O.3        1 UNL1     -0.3076
     7 O         1.881984   -3.6549   -0.717642 O.3        1 UNL1     -0.4605
     8 C         0.892712   -4.530707   -0.307969 C.ar        1 UNL1     0.1310
     9 C         -0.379468   -4.64098   -0.879545 C.ar        1 UNL1     0.0226
     10 C         -1.308551   -5.573607   -0.40319 C.ar        1 UNL1     0.1343
     11 C         -0.979229   -6.435775   0.641823 C.ar        1 UNL1     0.1007
     12 C         0.273484   -6.307243   1.247608 C.ar        1 UNL1     0.1389
     13 C         1.206542   -5.367615   0.770185 C.ar        1 UNL1     0.0229
     14 C         -1.891723   -7.496017   1.129056 C.2        1 UNL1     0.1740
     15 C         -1.29427   -8.470665   2.100991 C.3        1 UNL1     0.0520
     16 C         -0.399166   -7.703199   3.064184 C.3        1 UNL1     0.1322
     17 O         0.661989   -7.029647   2.351901 O.3        1 UNL1     -0.4828
     18 C         -1.168257   -6.814867   4.045045 C.ar        1 UNL1     -0.0067
     19 C         -0.791439   -5.4648   4.198478 C.ar        1 UNL1     -0.0516
     20 C         -1.442857   -4.637622   5.121188 C.ar        1 UNL1     -0.0198
     21 C         -2.465402   -5.149372   5.899867 C.ar        1 UNL1     0.1169
     22 C         -2.881399   -6.465698   5.747978 C.ar        1 UNL1     -0.0198
     23 C         -2.242444   -7.288035   4.812266 C.ar        1 UNL1     -0.0516
     24 O         -3.051154   -4.324271   6.814473 O.3        1 UNL1     -0.5068
     25 O         -3.040979   -7.639386   0.720226 O.2        1 UNL1     -0.2917
     26 O         -2.532457   -5.629811   -1.00359 O.3        1 UNL1     -0.5058
     27 O         2.422522   -0.789332   0.241402 O.3        1 UNL1     -0.3648
     28 O         -0.113   0.476223   -1.992804 O.3        1 UNL1     -0.3841
     29 O         -0.845947   -2.350163   0.086902 O.3        1 UNL1     -0.3863
     30 O         -0.08267   -2.182989   -3.503303 O.3        1 UNL1     -0.3829
     31 H         2.230211   0.279836   -1.431285 H        1 UNL1     0.0937
     32 H         -0.0   0.0   0.0 H        1 UNL1     0.0671
     33 H         -1.521779   -1.442259   -1.587225 H        1 UNL1     0.0649
     34 H         -0.410452   -3.668683   -2.125913 H        1 UNL1     0.0683
     35 H         1.944356   -3.466039   -2.780178 H        1 UNL1     0.1085
     36 H         -0.67636   -4.038128   -1.730746 H        1 UNL1     0.0691
     37 H         2.174623   -5.286568   1.25982 H        1 UNL1     0.0691
     38 H         -0.718297   -9.202381   1.524471 H        1 UNL1     0.0385
     39 H         -2.100621   -9.001302   2.618678 H        1 UNL1     0.0385
     40 H         0.116932   -8.445656   3.68782 H        1 UNL1     0.0789
     41 H         0.014246   -5.041688   3.605604 H        1 UNL1     0.0623
     42 H         -1.13516   -3.601508   5.238678 H        1 UNL1     0.0654
     43 H         -3.691091   -6.872495   6.341969 H        1 UNL1     0.0654
     44 H         -2.600362   -8.308231   4.712573 H        1 UNL1     0.0623
     45 H         -3.736848   -3.804896   6.364151 H        1 UNL1     0.2921
     46 H         -3.226887   -5.550642   -0.330602 H        1 UNL1     0.2922
     47 H         2.128833   -1.607381   0.666141 H        1 UNL1     0.2126
     48 H         -1.088389   0.521769   -1.976236 H        1 UNL1     0.2101
     49 H         -1.752875   -2.132682   0.355187 H        1 UNL1     0.2100
     50 H         0.803919   -2.081386   -3.907468 H        1 UNL1     0.2102
@<TRIPOS>BOND
     1     1     2    1
     2     1     6    1
     3     2     3    1
     4     3     4    1
     5     3    29    1
     6     3    33    1
     7     4     5    1
     8     5     6    1
     9     5     7    1
    10     5    35    1
    11     7     8    1
    12     8     9   ar
    13     8    13   ar
    14     9    10   ar
    15     9    36    1
    16    10    11   ar
    17    10    26    1
    18    11    12   ar
    19    11    14    1
    20    12    13   ar
    21    12    17    1
    22    13    37    1
    23    14    15    1
    24    14    25    2
    25    15    16    1
    26    15    38    1
    27    15    39    1
    28    16    17    1
    29    16    18    1
    30    16    40    1
    31    18    19   ar
    32    18    23   ar
    33    19    20   ar
    34    19    41    1
    35    20    21   ar
    36    20    42    1
    37    21    22   ar
    38    21    24    1
    39    22    23   ar
    40    22    43    1
    41    23    44    1
    42    24    45    1
    43    26    46    1
    44    27    47    1
    45    28    48    1
    46    29    49    1
    47    30    50    1
    48     1    31    1
    49     1    27    1
    50     2    32    1
    51     2    28    1
    52     4    34    1
    53     4    30    1
