@<TRIPOS>MOLECULE
*****
 50 53 0 0 0
SMALL
GASTEIGER

@<TRIPOS>ATOM
     1 C         -0.326516   -1.366727   1.672199 C.3        1 UNL1     0.1889
     2 C         -0.462171   -0.979453   0.175016 C.3        1 UNL1     0.1342
     3 C         -1.90488   -0.954248   -0.35264 C.3        1 UNL1     0.1174
     4 C         -2.789287   -2.028   0.286107 C.3        1 UNL1     0.1456
     5 C         -2.632256   -2.088363   1.816487 C.3        1 UNL1     0.2326
     6 O         -1.266222   -2.314838   2.156381 O.3        1 UNL1     -0.3076
     7 O         -3.204383   -0.956305   2.496513 O.3        1 UNL1     -0.4605
     8 C         -3.720134   -1.202935   3.756157 C.ar        1 UNL1     0.1310
     9 C         -4.542767   -2.281688   4.098018 C.ar        1 UNL1     0.0226
     10 C         -5.001626   -2.454846   5.409264 C.ar        1 UNL1     0.1343
     11 C         -4.629142   -1.565747   6.416537 C.ar        1 UNL1     0.1007
     12 C         -3.841606   -0.461842   6.07895 C.ar        1 UNL1     0.1389
     13 C         -3.382524   -0.286494   4.759887 C.ar        1 UNL1     0.0229
     14 C         -5.016152   -1.747514   7.834753 C.2        1 UNL1     0.1740
     15 C         -4.346792   -0.827882   8.813417 C.3        1 UNL1     0.0520
     16 C         -4.268736   0.560676   8.193924 C.3        1 UNL1     0.1322
     17 O         -3.505509   0.532916   6.967636 O.3        1 UNL1     -0.4828
     18 C         -5.624362   1.262385   8.081642 C.ar        1 UNL1     -0.0067
     19 C         -5.698815   2.531568   7.47185 C.ar        1 UNL1     -0.0516
     20 C         -6.914595   3.221475   7.395239 C.ar        1 UNL1     -0.0198
     21 C         -8.059031   2.657453   7.930003 C.ar        1 UNL1     0.1169
     22 C         -8.024026   1.394616   8.50694 C.ar        1 UNL1     -0.0198
     23 C         -6.811968   0.696519   8.567215 C.ar        1 UNL1     -0.0516
     24 O         -9.217299   3.375284   7.870551 O.3        1 UNL1     -0.5068
     25 O         -5.770521   -2.636399   8.221142 O.2        1 UNL1     -0.2917
     26 O         -5.801896   -3.527059   5.676683 O.3        1 UNL1     -0.5058
     27 O         -0.217737   -0.248026   2.537914 O.3        1 UNL1     -0.3648
     28 O         0.265225   -1.940472   -0.612412 O.3        1 UNL1     -0.3841
     29 O         -2.461475   0.357486   -0.244522 O.3        1 UNL1     -0.3863
     30 O         -2.44416   -3.316653   -0.26702 O.3        1 UNL1     -0.3829
     31 H         0.634342   -1.882517   1.776081 H        1 UNL1     0.0937
     32 H         0.0   0.0   0.0 H        1 UNL1     0.0671
     33 H         -1.871774   -1.169269   -1.429854 H        1 UNL1     0.0649
     34 H         -3.840235   -1.843478   0.037388 H        1 UNL1     0.0683
     35 H         -3.186275   -2.990784   2.103852 H        1 UNL1     0.1085
     36 H         -4.821876   -3.03818   3.372802 H        1 UNL1     0.0691
     37 H         -2.771576   0.58181   4.522645 H        1 UNL1     0.0691
     38 H         -3.347034   -1.227939   9.013332 H        1 UNL1     0.0385
     39 H         -4.910614   -0.831208   9.752498 H        1 UNL1     0.0385
     40 H         -3.673568   1.185394   8.873646 H        1 UNL1     0.0789
     41 H         -4.812941   2.999774   7.052729 H        1 UNL1     0.0623
     42 H         -6.956783   4.20469   6.933156 H        1 UNL1     0.0654
     43 H         -8.917233   0.937135   8.915353 H        1 UNL1     0.0654
     44 H         -6.823342   -0.292318   9.015453 H        1 UNL1     0.0623
     45 H         -9.098976   4.191403   8.38306 H        1 UNL1     0.2921
     46 H         -5.415125   -4.047372   6.398552 H        1 UNL1     0.2922
     47 H         0.511586   0.322465   2.257758 H        1 UNL1     0.2126
     48 H         1.210218   -1.820616   -0.397112 H        1 UNL1     0.2101
     49 H         -2.030741   0.952084   -0.879121 H        1 UNL1     0.2100
     50 H         -2.706747   -3.319773   -1.210816 H        1 UNL1     0.2102
@<TRIPOS>BOND
     1     1     2    1
     2     1     6    1
     3     2     3    1
     4     3     4    1
     5     3    29    1
     6     3    33    1
     7     4     5    1
     8     5     6    1
     9     5     7    1
    10     5    35    1
    11     7     8    1
    12     8     9   ar
    13     8    13   ar
    14     9    10   ar
    15     9    36    1
    16    10    11   ar
    17    10    26    1
    18    11    12   ar
    19    11    14    1
    20    12    13   ar
    21    12    17    1
    22    13    37    1
    23    14    15    1
    24    14    25    2
    25    15    16    1
    26    15    38    1
    27    15    39    1
    28    16    17    1
    29    16    18    1
    30    16    40    1
    31    18    19   ar
    32    18    23   ar
    33    19    20   ar
    34    19    41    1
    35    20    21   ar
    36    20    42    1
    37    21    22   ar
    38    21    24    1
    39    22    23   ar
    40    22    43    1
    41    23    44    1
    42    24    45    1
    43    26    46    1
    44    27    47    1
    45    28    48    1
    46    29    49    1
    47    30    50    1
    48     1    31    1
    49     1    27    1
    50     2    32    1
    51     2    28    1
    52     4    34    1
    53     4    30    1
