@<TRIPOS>MOLECULE
*****
 50 53 0 0 0
SMALL
GASTEIGER

@<TRIPOS>ATOM
     1 C         -0.390873   -1.380864   1.646583 C.3        1 UNL1     0.1889
     2 C         -0.492366   -0.968291   0.153458 C.3        1 UNL1     0.1342
     3 C         -1.92546   -0.894306   -0.395388 C.3        1 UNL1     0.1174
     4 C         -2.849675   -1.951497   0.213948 C.3        1 UNL1     0.1456
     5 C         -2.718075   -2.038417   1.745447 C.3        1 UNL1     0.2326
     6 O         -1.364414   -2.308669   2.102427 O.3        1 UNL1     -0.3076
     7 O         -3.268355   -0.900434   2.433565 O.3        1 UNL1     -0.4605
     8 C         -3.864184   -1.160236   3.654638 C.ar        1 UNL1     0.1310
     9 C         -5.221293   -1.43739   3.851466 C.ar        1 UNL1     0.0226
     10 C         -5.727407   -1.705228   5.128969 C.ar        1 UNL1     0.1343
     11 C         -4.883476   -1.725866   6.238561 C.ar        1 UNL1     0.1007
     12 C         -3.533867   -1.41027   6.060406 C.ar        1 UNL1     0.1389
     13 C         -3.025711   -1.138398   4.776158 C.ar        1 UNL1     0.0229
     14 C         -5.349293   -2.084997   7.598044 C.2        1 UNL1     0.1740
     15 C         -4.271548   -2.274038   8.624824 C.3        1 UNL1     0.0520
     16 C         -3.214213   -1.198466   8.417111 C.3        1 UNL1     0.1322
     17 O         -2.636404   -1.295643   7.096594 O.3        1 UNL1     -0.4828
     18 C         -3.680899   0.207114   8.80347 C.ar        1 UNL1     -0.0067
     19 C         -5.036904   0.422837   9.12429 C.ar        1 UNL1     -0.0516
     20 C         -5.506251   1.704496   9.435785 C.ar        1 UNL1     -0.0198
     21 C         -4.633081   2.777451   9.422775 C.ar        1 UNL1     0.1169
     22 C         -3.285405   2.591375   9.143518 C.ar        1 UNL1     -0.0198
     23 C         -2.812136   1.306876   8.850033 C.ar        1 UNL1     -0.0516
     24 O         -5.133886   4.016755   9.694291 O.3        1 UNL1     -0.5068
     25 O         -6.526617   -2.299031   7.874779 O.2        1 UNL1     -0.2917
     26 O         -7.060714   -1.966867   5.253151 O.3        1 UNL1     -0.5058
     27 O         -0.263848   -0.278345   2.530383 O.3        1 UNL1     -0.3648
     28 O         0.219605   -1.938202   -0.63716 O.3        1 UNL1     -0.3841
     29 O         -2.446295   0.431079   -0.276144 O.3        1 UNL1     -0.3863
     30 O         -2.53267   -3.24135   -0.353041 O.3        1 UNL1     -0.3829
     31 H         0.553276   -1.925312   1.75721 H        1 UNL1     0.0937
     32 H         0.0   0.0   0.0 H        1 UNL1     0.0671
     33 H         -1.881819   -1.094602   -1.475063 H        1 UNL1     0.0649
     34 H         -3.89101   -1.733486   -0.047766 H        1 UNL1     0.0683
     35 H         -3.301795   -2.928717   2.010995 H        1 UNL1     0.1085
     36 H         -5.918321   -1.491472   3.022401 H        1 UNL1     0.0691
     37 H         -1.971451   -0.89442   4.664335 H        1 UNL1     0.0691
     38 H         -3.850176   -3.274861   8.482255 H        1 UNL1     0.0385
     39 H         -4.716593   -2.229536   9.624691 H        1 UNL1     0.0385
     40 H         -2.382861   -1.426029   9.097985 H        1 UNL1     0.0789
     41 H         -5.744153   -0.401409   9.132504 H        1 UNL1     0.0623
     42 H         -6.556521   1.85989   9.669869 H        1 UNL1     0.0654
     43 H         -2.590001   3.42223   9.145279 H        1 UNL1     0.0654
     44 H         -1.75129   1.196436   8.646923 H        1 UNL1     0.0623
     45 H         -5.865607   4.192991   9.080905 H        1 UNL1     0.2921
     46 H         -7.195535   -2.642756   5.936093 H        1 UNL1     0.2922
     47 H         -0.601515   0.526242   2.112675 H        1 UNL1     0.2126
     48 H         -0.271377   -2.77864   -0.557577 H        1 UNL1     0.2101
     49 H         -3.002234   0.497114   0.516551 H        1 UNL1     0.2100
     50 H         -2.132916   -3.790872   0.352604 H        1 UNL1     0.2102
@<TRIPOS>BOND
     1     1     2    1
     2     1     6    1
     3     2     3    1
     4     3     4    1
     5     3    29    1
     6     3    33    1
     7     4     5    1
     8     5     6    1
     9     5     7    1
    10     5    35    1
    11     7     8    1
    12     8     9   ar
    13     8    13   ar
    14     9    10   ar
    15     9    36    1
    16    10    11   ar
    17    10    26    1
    18    11    12   ar
    19    11    14    1
    20    12    13   ar
    21    12    17    1
    22    13    37    1
    23    14    15    1
    24    14    25    2
    25    15    16    1
    26    15    38    1
    27    15    39    1
    28    16    17    1
    29    16    18    1
    30    16    40    1
    31    18    19   ar
    32    18    23   ar
    33    19    20   ar
    34    19    41    1
    35    20    21   ar
    36    20    42    1
    37    21    22   ar
    38    21    24    1
    39    22    23   ar
    40    22    43    1
    41    23    44    1
    42    24    45    1
    43    26    46    1
    44    27    47    1
    45    28    48    1
    46    29    49    1
    47    30    50    1
    48     1    31    1
    49     1    27    1
    50     2    32    1
    51     2    28    1
    52     4    34    1
    53     4    30    1
