@<TRIPOS>MOLECULE
*****
 50 53 0 0 0
SMALL
GASTEIGER

@<TRIPOS>ATOM
     1 C         2.01444   0.64172   0.548661 C.3        1 UNL1     0.1889
     2 C         0.529776   0.348944   0.895063 C.3        1 UNL1     0.1342
     3 C         -0.234396   1.537537   1.498183 C.3        1 UNL1     0.1174
     4 C         0.644348   2.416048   2.392131 C.3        1 UNL1     0.1456
     5 C         2.00153   2.746011   1.744408 C.3        1 UNL1     0.2326
     6 O         2.689219   1.540952   1.416101 O.3        1 UNL1     -0.3076
     7 O         1.901151   3.659898   0.637134 O.3        1 UNL1     -0.4605
     8 C         0.643405   4.18194   0.394081 C.ar        1 UNL1     0.1310
     9 C         -0.53808   3.775798   1.023718 C.ar        1 UNL1     0.0226
     10 C         -1.764225   4.379549   0.720478 C.ar        1 UNL1     0.1343
     11 C         -1.83499   5.421375   -0.203336 C.ar        1 UNL1     0.1007
     12 C         -0.66849   5.807905   -0.868659 C.ar        1 UNL1     0.1389
     13 C         0.563835   5.198886   -0.565506 C.ar        1 UNL1     0.0229
     14 C         -3.08958   6.150923   -0.49985 C.2        1 UNL1     0.1740
     15 C         -2.940752   7.381376   -1.345654 C.3        1 UNL1     0.0520
     16 C         -1.924106   7.092625   -2.441561 C.3        1 UNL1     0.1322
     17 O         -0.641615   6.747273   -1.873215 O.3        1 UNL1     -0.4828
     18 C         -2.428334   6.117894   -3.508509 C.ar        1 UNL1     -0.0067
     19 C         -2.546741   4.748299   -3.194816 C.ar        1 UNL1     -0.0516
     20 C         -2.959427   3.82313   -4.161106 C.ar        1 UNL1     -0.0198
     21 C         -3.248891   4.252918   -5.443806 C.ar        1 UNL1     0.1169
     22 C         -3.173955   5.599841   -5.773994 C.ar        1 UNL1     -0.0198
     23 C         -2.77907   6.527768   -4.802875 C.ar        1 UNL1     -0.0516
     24 O         -3.611166   3.317841   -6.368354 O.3        1 UNL1     -0.5068
     25 O         -4.180776   5.837663   -0.031188 O.2        1 UNL1     -0.2917
     26 O         -2.879763   3.936327   1.369103 O.3        1 UNL1     -0.5058
     27 O         2.221862   0.974318   -0.814842 O.3        1 UNL1     -0.3648
     28 O         0.488444   -0.720168   1.858388 O.3        1 UNL1     -0.3841
     29 O         -0.903181   2.28098   0.477324 O.3        1 UNL1     -0.3863
     30 O         0.880664   1.732883   3.642383 O.3        1 UNL1     -0.3829
     31 H         2.55838   -0.299737   0.682331 H        1 UNL1     0.0937
     32 H         -0.0   0.0   0.0 H        1 UNL1     0.0671
     33 H         -1.033177   1.133848   2.135917 H        1 UNL1     0.0649
     34 H         0.121049   3.348675   2.630387 H        1 UNL1     0.0683
     35 H         2.569155   3.227724   2.550407 H        1 UNL1     0.1085
     36 H         -0.540853   3.009794   1.79141 H        1 UNL1     0.0691
     37 H         1.457303   5.517186   -1.098323 H        1 UNL1     0.0691
     38 H         -2.598945   8.19218   -0.693511 H        1 UNL1     0.0385
     39 H         -3.919649   7.65848   -1.75155 H        1 UNL1     0.0385
     40 H         -1.743683   8.037   -2.972713 H        1 UNL1     0.0789
     41 H         -2.316559   4.384455   -2.197678 H        1 UNL1     0.0623
     42 H         -3.035387   2.768015   -3.910159 H        1 UNL1     0.0654
     43 H         -3.412855   5.949283   -6.771354 H        1 UNL1     0.0654
     44 H         -2.741641   7.573424   -5.092785 H        1 UNL1     0.0623
     45 H         -4.569875   3.17834   -6.304059 H        1 UNL1     0.2921
     46 H         -3.577344   4.608015   1.308874 H        1 UNL1     0.2922
     47 H         3.127443   1.286937   -0.949199 H        1 UNL1     0.2126
     48 H         0.150944   -1.507032   1.388631 H        1 UNL1     0.2101
     49 H         -1.782717   2.549639   0.787216 H        1 UNL1     0.2100
     50 H         1.842173   1.766101   3.827071 H        1 UNL1     0.2102
@<TRIPOS>BOND
     1     1     2    1
     2     1     6    1
     3     2     3    1
     4     3     4    1
     5     3    29    1
     6     3    33    1
     7     4     5    1
     8     5     6    1
     9     5     7    1
    10     5    35    1
    11     7     8    1
    12     8     9   ar
    13     8    13   ar
    14     9    10   ar
    15     9    36    1
    16    10    11   ar
    17    10    26    1
    18    11    12   ar
    19    11    14    1
    20    12    13   ar
    21    12    17    1
    22    13    37    1
    23    14    15    1
    24    14    25    2
    25    15    16    1
    26    15    38    1
    27    15    39    1
    28    16    17    1
    29    16    18    1
    30    16    40    1
    31    18    19   ar
    32    18    23   ar
    33    19    20   ar
    34    19    41    1
    35    20    21   ar
    36    20    42    1
    37    21    22   ar
    38    21    24    1
    39    22    23   ar
    40    22    43    1
    41    23    44    1
    42    24    45    1
    43    26    46    1
    44    27    47    1
    45    28    48    1
    46    29    49    1
    47    30    50    1
    48     1    31    1
    49     1    27    1
    50     2    32    1
    51     2    28    1
    52     4    34    1
    53     4    30    1
