@<TRIPOS>MOLECULE
*****
 50 53 0 0 0
SMALL
GASTEIGER

@<TRIPOS>ATOM
     1 C         -0.001201   -1.104714   1.884253 C.3        1 UNL1     0.1889
     2 C         -0.264003   -1.002972   0.357648 C.3        1 UNL1     0.1342
     3 C         -1.705132   -1.323425   -0.067702 C.3        1 UNL1     0.1174
     4 C         -2.34826   -2.415702   0.790456 C.3        1 UNL1     0.1456
     5 C         -2.124281   -2.19107   2.297021 C.3        1 UNL1     0.2326
     6 O         -0.728001   -2.110769   2.574188 O.3        1 UNL1     -0.3076
     7 O         -2.871391   -1.081694   2.828466 O.3        1 UNL1     -0.4605
     8 C         -3.273254   -1.19754   4.147031 C.ar        1 UNL1     0.1310
     9 C         -3.858155   -2.332361   4.719196 C.ar        1 UNL1     0.0226
     10 C         -4.215966   -2.357897   6.072422 C.ar        1 UNL1     0.1343
     11 C         -3.975477   -1.256502   6.892747 C.ar        1 UNL1     0.1007
     12 C         -3.429606   -0.102943   6.32344 C.ar        1 UNL1     0.1389
     13 C         -3.072347   -0.076588   4.962153 C.ar        1 UNL1     0.0229
     14 C         -4.256381   -1.258998   8.347134 C.2        1 UNL1     0.1740
     15 C         -3.731928   -0.079212   9.111728 C.3        1 UNL1     0.0520
     16 C         -3.948833   1.173157   8.273587 C.3        1 UNL1     0.1322
     17 O         -3.250338   1.073816   7.01291 O.3        1 UNL1     -0.4828
     18 C         -5.417293   1.588006   8.154218 C.ar        1 UNL1     -0.0067
     19 C         -5.950851   1.889055   6.884218 C.ar        1 UNL1     -0.0516
     20 C         -7.276477   2.317226   6.745119 C.ar        1 UNL1     -0.0198
     21 C         -8.07477   2.455112   7.866521 C.ar        1 UNL1     0.1169
     22 C         -7.588019   2.134184   9.127044 C.ar        1 UNL1     -0.0198
     23 C         -6.268026   1.688317   9.264437 C.ar        1 UNL1     -0.0516
     24 O         -9.349008   2.910811   7.696064 O.3        1 UNL1     -0.5068
     25 O         -4.808658   -2.189954   8.927475 O.2        1 UNL1     -0.2917
     26 O         -4.78354   -3.495123   6.56857 O.3        1 UNL1     -0.5058
     27 O         -0.070301   0.143924   2.554266 O.3        1 UNL1     -0.3648
     28 O         0.599462   -1.936737   -0.317049 O.3        1 UNL1     -0.3841
     29 O         -2.492444   -0.13241   -0.128981 O.3        1 UNL1     -0.3863
     30 O         -1.789873   -3.696201   0.424101 O.3        1 UNL1     -0.3829
     31 H         1.042362   -1.416494   2.001937 H        1 UNL1     0.0937
     32 H         0.0   0.0   0.0 H        1 UNL1     0.0671
     33 H         -1.673675   -1.705693   -1.097557 H        1 UNL1     0.0649
     34 H         -3.42391   -2.465376   0.588192 H        1 UNL1     0.0683
     35 H         -2.488539   -3.116956   2.759546 H        1 UNL1     0.1085
     36 H         -4.019763   -3.239999   4.148061 H        1 UNL1     0.0691
     37 H         -2.650049   0.834093   4.542846 H        1 UNL1     0.0691
     38 H         -2.66615   -0.251315   9.296187 H        1 UNL1     0.0385
     39 H         -4.24188   -0.023206   10.079504 H        1 UNL1     0.0385
     40 H         -3.45417   2.002586   8.796918 H        1 UNL1     0.0789
     41 H         -5.341931   1.797614   5.989508 H        1 UNL1     0.0623
     42 H         -7.6727   2.557735   5.761669 H        1 UNL1     0.0654
     43 H         -8.209133   2.224153   10.010239 H        1 UNL1     0.0654
     44 H         -5.924085   1.436345   10.262966 H        1 UNL1     0.0623
     45 H         -9.307645   3.796086   7.299461 H        1 UNL1     0.2921
     46 H         -4.258286   -3.818691   7.317452 H        1 UNL1     0.2922
     47 H         0.54362   0.774148   2.15205 H        1 UNL1     0.2126
     48 H         1.515908   -1.667001   -0.114317 H        1 UNL1     0.2101
     49 H         -2.199139   0.419232   -0.871583 H        1 UNL1     0.2100
     50 H         -2.059798   -3.890311   -0.497405 H        1 UNL1     0.2102
@<TRIPOS>BOND
     1     1     2    1
     2     1     6    1
     3     2     3    1
     4     3     4    1
     5     3    29    1
     6     3    33    1
     7     4     5    1
     8     5     6    1
     9     5     7    1
    10     5    35    1
    11     7     8    1
    12     8     9   ar
    13     8    13   ar
    14     9    10   ar
    15     9    36    1
    16    10    11   ar
    17    10    26    1
    18    11    12   ar
    19    11    14    1
    20    12    13   ar
    21    12    17    1
    22    13    37    1
    23    14    15    1
    24    14    25    2
    25    15    16    1
    26    15    38    1
    27    15    39    1
    28    16    17    1
    29    16    18    1
    30    16    40    1
    31    18    19   ar
    32    18    23   ar
    33    19    20   ar
    34    19    41    1
    35    20    21   ar
    36    20    42    1
    37    21    22   ar
    38    21    24    1
    39    22    23   ar
    40    22    43    1
    41    23    44    1
    42    24    45    1
    43    26    46    1
    44    27    47    1
    45    28    48    1
    46    29    49    1
    47    30    50    1
    48     1    31    1
    49     1    27    1
    50     2    32    1
    51     2    28    1
    52     4    34    1
    53     4    30    1
