@<TRIPOS>MOLECULE
*****
 50 53 0 0 0
SMALL
GASTEIGER

@<TRIPOS>ATOM
     1 C         -0.351203   -1.339557   1.689097 C.3        1 UNL1     0.1889
     2 C         -0.471029   -0.973326   0.185283 C.3        1 UNL1     0.1342
     3 C         -1.908906   -0.94519   -0.355256 C.3        1 UNL1     0.1174
     4 C         -2.806849   -2.002863   0.291385 C.3        1 UNL1     0.1456
     5 C         -2.663472   -2.041898   1.823795 C.3        1 UNL1     0.2326
     6 O         -1.302163   -2.273467   2.178875 O.3        1 UNL1     -0.3076
     7 O         -3.232893   -0.895765   2.482172 O.3        1 UNL1     -0.4605
     8 C         -3.757933   -1.119246   3.742297 C.ar        1 UNL1     0.1310
     9 C         -4.589402   -2.187359   4.095986 C.ar        1 UNL1     0.0226
     10 C         -5.05741   -2.336914   5.406903 C.ar        1 UNL1     0.1343
     11 C         -4.685576   -1.434302   6.402329 C.ar        1 UNL1     0.1007
     12 C         -3.88907   -0.340757   6.052298 C.ar        1 UNL1     0.1389
     13 C         -3.420778   -0.189138   4.733531 C.ar        1 UNL1     0.0229
     14 C         -5.082451   -1.591216   7.820787 C.2        1 UNL1     0.1740
     15 C         -4.413384   -0.660361   8.788985 C.3        1 UNL1     0.0520
     16 C         -4.32281   0.717713   8.148153 C.3        1 UNL1     0.1322
     17 O         -3.552229   0.665845   6.927258 O.3        1 UNL1     -0.4828
     18 C         -5.673293   1.425908   8.016323 C.ar        1 UNL1     -0.0067
     19 C         -6.032431   2.008309   6.783423 C.ar        1 UNL1     -0.0516
     20 C         -7.238943   2.70424   6.642099 C.ar        1 UNL1     -0.0198
     21 C         -8.089609   2.83082   7.725691 C.ar        1 UNL1     0.1169
     22 C         -7.779183   2.239728   8.943511 C.ar        1 UNL1     -0.0198
     23 C         -6.581327   1.527995   9.080018 C.ar        1 UNL1     -0.0516
     24 O         -9.238052   3.547929   7.560671 O.3        1 UNL1     -0.5068
     25 O         -5.844743   -2.469205   8.216427 O.2        1 UNL1     -0.2917
     26 O         -5.866017   -3.399803   5.686197 O.3        1 UNL1     -0.5058
     27 O         -0.241463   -0.209094   2.539273 O.3        1 UNL1     -0.3648
     28 O         0.255866   -1.951171   -0.581626 O.3        1 UNL1     -0.3841
     29 O         -2.456513   0.372077   -0.271198 O.3        1 UNL1     -0.3863
     30 O         -2.466686   -3.302024   -0.239802 O.3        1 UNL1     -0.3829
     31 H         0.604811   -1.860868   1.808895 H        1 UNL1     0.0937
     32 H         0.0   0.0   0.0 H        1 UNL1     0.0671
     33 H         -1.868138   -1.176253   -1.42888 H        1 UNL1     0.0649
     34 H         -3.854194   -1.814236   0.03083 H        1 UNL1     0.0683
     35 H         -3.22673   -2.935871   2.119483 H        1 UNL1     0.1085
     36 H         -4.868772   -2.953495   3.381068 H        1 UNL1     0.0691
     37 H         -2.802949   0.671518   4.486444 H        1 UNL1     0.0691
     38 H         -3.417405   -1.063365   9.001446 H        1 UNL1     0.0385
     39 H         -4.982992   -0.645349   9.724453 H        1 UNL1     0.0385
     40 H         -3.727939   1.349425   8.821643 H        1 UNL1     0.0789
     41 H         -5.377689   1.930824   5.920312 H        1 UNL1     0.0623
     42 H         -7.499086   3.159065   5.689486 H        1 UNL1     0.0654
     43 H         -8.445163   2.319865   9.794369 H        1 UNL1     0.0654
     44 H         -6.375769   1.070125   10.042799 H        1 UNL1     0.0623
     45 H         -8.999518   4.458429   7.322325 H        1 UNL1     0.2921
     46 H         -5.475709   -3.923483   6.403714 H        1 UNL1     0.2922
     47 H         0.501354   0.3461   2.263879 H        1 UNL1     0.2126
     48 H         1.191135   -1.881223   -0.309394 H        1 UNL1     0.2101
     49 H         -2.015619   0.954165   -0.910402 H        1 UNL1     0.2100
     50 H         -2.700301   -3.309377   -1.19116 H        1 UNL1     0.2102
@<TRIPOS>BOND
     1     1     2    1
     2     1     6    1
     3     2     3    1
     4     3     4    1
     5     3    29    1
     6     3    33    1
     7     4     5    1
     8     5     6    1
     9     5     7    1
    10     5    35    1
    11     7     8    1
    12     8     9   ar
    13     8    13   ar
    14     9    10   ar
    15     9    36    1
    16    10    11   ar
    17    10    26    1
    18    11    12   ar
    19    11    14    1
    20    12    13   ar
    21    12    17    1
    22    13    37    1
    23    14    15    1
    24    14    25    2
    25    15    16    1
    26    15    38    1
    27    15    39    1
    28    16    17    1
    29    16    18    1
    30    16    40    1
    31    18    19   ar
    32    18    23   ar
    33    19    20   ar
    34    19    41    1
    35    20    21   ar
    36    20    42    1
    37    21    22   ar
    38    21    24    1
    39    22    23   ar
    40    22    43    1
    41    23    44    1
    42    24    45    1
    43    26    46    1
    44    27    47    1
    45    28    48    1
    46    29    49    1
    47    30    50    1
    48     1    31    1
    49     1    27    1
    50     2    32    1
    51     2    28    1
    52     4    34    1
    53     4    30    1
