@<TRIPOS>MOLECULE
*****
 50 53 0 0 0
SMALL
GASTEIGER

@<TRIPOS>ATOM
     1 C         -1.956197   -0.970374   -0.049716 C.3        1 UNL1     0.1889
     2 C         -0.845175   -0.097332   -0.692653 C.3        1 UNL1     0.1342
     3 C         -1.301484   1.304112   -1.126473 C.3        1 UNL1     0.1174
     4 C         -2.743255   1.326287   -1.640206 C.3        1 UNL1     0.1456
     5 C         -3.709412   0.557454   -0.720532 C.3        1 UNL1     0.2326
     6 O         -3.266204   -0.788948   -0.566785 O.3        1 UNL1     -0.3076
     7 O         -3.955299   1.218963   0.533767 O.3        1 UNL1     -0.4605
     8 C         -3.219979   2.366983   0.768037 C.ar        1 UNL1     0.1310
     9 C         -2.427525   2.605645   1.896025 C.ar        1 UNL1     0.0226
     10 C         -1.704747   3.796647   2.033897 C.ar        1 UNL1     0.1343
     11 C         -1.73814   4.768738   1.035015 C.ar        1 UNL1     0.1007
     12 C         -2.558164   4.559529   -0.076999 C.ar        1 UNL1     0.1389
     13 C         -3.286889   3.363043   -0.214158 C.ar        1 UNL1     0.0229
     14 C         -0.928853   6.008162   1.090119 C.2        1 UNL1     0.1740
     15 C         -0.915313   6.831067   -0.16455 C.3        1 UNL1     0.0520
     16 C         -2.320018   6.837509   -0.751679 C.3        1 UNL1     0.1322
     17 O         -2.750075   5.494911   -1.0672 O.3        1 UNL1     -0.4828
     18 C         -3.326251   7.650047   0.066857 C.ar        1 UNL1     -0.0067
     19 C         -3.990075   8.738791   -0.534963 C.ar        1 UNL1     -0.0516
     20 C         -4.88066   9.53162   0.198687 C.ar        1 UNL1     -0.0198
     21 C         -5.109844   9.25116   1.533845 C.ar        1 UNL1     0.1169
     22 C         -4.496693   8.165501   2.145588 C.ar        1 UNL1     -0.0198
     23 C         -3.620178   7.361362   1.407253 C.ar        1 UNL1     -0.0516
     24 O         -5.95465   10.068079   2.226194 O.3        1 UNL1     -0.5068
     25 O         -0.240617   6.323819   2.057164 O.2        1 UNL1     -0.2917
     26 O         -0.951826   3.968139   3.158746 O.3        1 UNL1     -0.5058
     27 O         -1.944903   -0.945419   1.368747 O.3        1 UNL1     -0.3648
     28 O         -0.357628   -0.771857   -1.867395 O.3        1 UNL1     -0.3841
     29 O         -1.069535   2.257194   -0.087259 O.3        1 UNL1     -0.3863
     30 O         -2.786154   0.734525   -2.956894 O.3        1 UNL1     -0.3829
     31 H         -1.722697   -2.010285   -0.302981 H        1 UNL1     0.0937
     32 H         0.0   0.0   0.0 H        1 UNL1     0.0671
     33 H         -0.661605   1.62156   -1.96164 H        1 UNL1     0.0649
     34 H         -3.087932   2.36124   -1.742537 H        1 UNL1     0.0683
     35 H         -4.645827   0.521792   -1.291264 H        1 UNL1     0.1085
     36 H         -2.315596   1.865919   2.681136 H        1 UNL1     0.0691
     37 H         -3.918821   3.22498   -1.088854 H        1 UNL1     0.0691
     38 H         -0.200755   6.370441   -0.855025 H        1 UNL1     0.0385
     39 H         -0.560716   7.840111   0.071818 H        1 UNL1     0.0385
     40 H         -2.26167   7.343004   -1.725121 H        1 UNL1     0.0789
     41 H         -3.820277   8.985147   -1.579055 H        1 UNL1     0.0623
     42 H         -5.377311   10.375631   -0.273535 H        1 UNL1     0.0654
     43 H         -4.680568   7.927835   3.186556 H        1 UNL1     0.0654
     44 H         -3.166814   6.515076   1.914309 H        1 UNL1     0.0623
     45 H         -6.786226   9.590726   2.378941 H        1 UNL1     0.2921
     46 H         -1.259442   3.360403   3.849717 H        1 UNL1     0.2922
     47 H         -1.147088   -1.37713   1.704866 H        1 UNL1     0.2126
     48 H         0.315996   -0.187805   -2.265951 H        1 UNL1     0.2101
     49 H         -0.126329   2.274127   0.140493 H        1 UNL1     0.2100
     50 H         -2.061119   1.125683   -3.487019 H        1 UNL1     0.2102
@<TRIPOS>BOND
     1     1     2    1
     2     1     6    1
     3     2     3    1
     4     3     4    1
     5     3    29    1
     6     3    33    1
     7     4     5    1
     8     5     6    1
     9     5     7    1
    10     5    35    1
    11     7     8    1
    12     8     9   ar
    13     8    13   ar
    14     9    10   ar
    15     9    36    1
    16    10    11   ar
    17    10    26    1
    18    11    12   ar
    19    11    14    1
    20    12    13   ar
    21    12    17    1
    22    13    37    1
    23    14    15    1
    24    14    25    2
    25    15    16    1
    26    15    38    1
    27    15    39    1
    28    16    17    1
    29    16    18    1
    30    16    40    1
    31    18    19   ar
    32    18    23   ar
    33    19    20   ar
    34    19    41    1
    35    20    21   ar
    36    20    42    1
    37    21    22   ar
    38    21    24    1
    39    22    23   ar
    40    22    43    1
    41    23    44    1
    42    24    45    1
    43    26    46    1
    44    27    47    1
    45    28    48    1
    46    29    49    1
    47    30    50    1
    48     1    31    1
    49     1    27    1
    50     2    32    1
    51     2    28    1
    52     4    34    1
    53     4    30    1
