@<TRIPOS>MOLECULE
*****
 50 53 0 0 0
SMALL
GASTEIGER

@<TRIPOS>ATOM
     1 C         -0.390873   -1.380864   1.646583 C.3        1 UNL1     0.1889
     2 C         -0.492366   -0.968291   0.153458 C.3        1 UNL1     0.1342
     3 C         -1.92546   -0.894306   -0.395388 C.3        1 UNL1     0.1174
     4 C         -2.849675   -1.951497   0.213948 C.3        1 UNL1     0.1456
     5 C         -2.718075   -2.038417   1.745447 C.3        1 UNL1     0.2326
     6 O         -1.364414   -2.308669   2.102427 O.3        1 UNL1     -0.3076
     7 O         -3.268355   -0.900434   2.433565 O.3        1 UNL1     -0.4605
     8 C         -3.824675   -1.153197   3.674592 C.ar        1 UNL1     0.1310
     9 C         -4.916813   -1.993252   3.917163 C.ar        1 UNL1     0.0226
     10 C         -5.397437   -2.198703   5.215891 C.ar        1 UNL1     0.1343
     11 C         -4.781994   -1.587116   6.307234 C.ar        1 UNL1     0.1007
     12 C         -3.716367   -0.713859   6.073466 C.ar        1 UNL1     0.1389
     13 C         -3.234961   -0.505379   4.767244 C.ar        1 UNL1     0.0229
     14 C         -5.195455   -1.83467   7.70792 C.2        1 UNL1     0.1740
     15 C         -4.286827   -1.273451   8.761949 C.3        1 UNL1     0.0520
     16 C         -3.822883   0.105575   8.313618 C.3        1 UNL1     0.1322
     17 O         -3.106677   0.023727   7.061651 O.3        1 UNL1     -0.4828
     18 C         -4.925104   1.167086   8.345679 C.ar        1 UNL1     -0.0067
     19 C         -6.261667   0.771413   8.558411 C.ar        1 UNL1     -0.0516
     20 C         -7.299515   1.710929   8.546407 C.ar        1 UNL1     -0.0198
     21 C         -7.015334   3.045084   8.31597 C.ar        1 UNL1     0.1169
     22 C         -5.7054   3.470151   8.136445 C.ar        1 UNL1     -0.0198
     23 C         -4.665352   2.533435   8.166756 C.ar        1 UNL1     -0.0516
     24 O         -8.05604   3.92574   8.273813 O.3        1 UNL1     -0.5068
     25 O         -6.168086   -2.518957   8.014882 O.2        1 UNL1     -0.2917
     26 O         -6.466758   -3.029193   5.384486 O.3        1 UNL1     -0.5058
     27 O         -0.263848   -0.278345   2.530383 O.3        1 UNL1     -0.3648
     28 O         0.219605   -1.938202   -0.63716 O.3        1 UNL1     -0.3841
     29 O         -2.446295   0.431079   -0.276144 O.3        1 UNL1     -0.3863
     30 O         -2.53267   -3.24135   -0.353041 O.3        1 UNL1     -0.3829
     31 H         0.553276   -1.925312   1.75721 H        1 UNL1     0.0937
     32 H         0.0   0.0   0.0 H        1 UNL1     0.0671
     33 H         -1.881819   -1.094602   -1.475063 H        1 UNL1     0.0649
     34 H         -3.89101   -1.733486   -0.047766 H        1 UNL1     0.0683
     35 H         -3.301795   -2.928717   2.010995 H        1 UNL1     0.1085
     36 H         -5.403342   -2.541216   3.117697 H        1 UNL1     0.0691
     37 H         -2.404743   0.180234   4.61179 H        1 UNL1     0.0691
     38 H         -3.439949   -1.959684   8.868751 H        1 UNL1     0.0385
     39 H         -4.822445   -1.23994   9.716815 H        1 UNL1     0.0385
     40 H         -3.07083   0.445577   9.038418 H        1 UNL1     0.0789
     41 H         -6.511831   -0.271085   8.732385 H        1 UNL1     0.0623
     42 H         -8.327398   1.391697   8.699894 H        1 UNL1     0.0654
     43 H         -5.470063   4.514608   7.970203 H        1 UNL1     0.0654
     44 H         -3.652901   2.902189   8.03331 H        1 UNL1     0.0623
     45 H         -8.241224   4.225221   9.178653 H        1 UNL1     0.2921
     46 H         -6.301642   -3.620817   6.135572 H        1 UNL1     0.2922
     47 H         -1.137823   0.041978   2.793863 H        1 UNL1     0.2126
     48 H         -0.329818   -2.114396   -1.425083 H        1 UNL1     0.2101
     49 H         -3.002234   0.497114   0.516551 H        1 UNL1     0.2100
     50 H         -2.005846   -3.739162   0.306013 H        1 UNL1     0.2102
@<TRIPOS>BOND
     1     1     2    1
     2     1     6    1
     3     2     3    1
     4     3     4    1
     5     3    29    1
     6     3    33    1
     7     4     5    1
     8     5     6    1
     9     5     7    1
    10     5    35    1
    11     7     8    1
    12     8     9   ar
    13     8    13   ar
    14     9    10   ar
    15     9    36    1
    16    10    11   ar
    17    10    26    1
    18    11    12   ar
    19    11    14    1
    20    12    13   ar
    21    12    17    1
    22    13    37    1
    23    14    15    1
    24    14    25    2
    25    15    16    1
    26    15    38    1
    27    15    39    1
    28    16    17    1
    29    16    18    1
    30    16    40    1
    31    18    19   ar
    32    18    23   ar
    33    19    20   ar
    34    19    41    1
    35    20    21   ar
    36    20    42    1
    37    21    22   ar
    38    21    24    1
    39    22    23   ar
    40    22    43    1
    41    23    44    1
    42    24    45    1
    43    26    46    1
    44    27    47    1
    45    28    48    1
    46    29    49    1
    47    30    50    1
    48     1    31    1
    49     1    27    1
    50     2    32    1
    51     2    28    1
    52     4    34    1
    53     4    30    1
