@<TRIPOS>MOLECULE
*****
 50 53 0 0 0
SMALL
GASTEIGER

@<TRIPOS>ATOM
     1 C         -0.32883   -1.328152   1.702553 C.3        1 UNL1     0.1889
     2 C         -0.461236   -0.975818   0.196476 C.3        1 UNL1     0.1342
     3 C         -1.902638   -0.964938   -0.335227 C.3        1 UNL1     0.1174
     4 C         -2.78715   -2.024919   0.32598 C.3        1 UNL1     0.1456
     5 C         -2.633912   -2.049632   1.857734 C.3        1 UNL1     0.2326
     6 O         -1.268426   -2.266183   2.206192 O.3        1 UNL1     -0.3076
     7 O         -3.20935   -0.902983   2.509952 O.3        1 UNL1     -0.4605
     8 C         -3.71733   -1.118538   3.778424 C.ar        1 UNL1     0.1310
     9 C         -4.532001   -2.192317   4.153407 C.ar        1 UNL1     0.0226
     10 C         -4.983255   -2.332719   5.471193 C.ar        1 UNL1     0.1343
     11 C         -4.610843   -1.414763   6.452267 C.ar        1 UNL1     0.1007
     12 C         -3.831392   -0.315924   6.081062 C.ar        1 UNL1     0.1389
     13 C         -3.379967   -0.173542   4.755403 C.ar        1 UNL1     0.0229
     14 C         -4.989663   -1.560489   7.876842 C.2        1 UNL1     0.1740
     15 C         -4.320704   -0.611111   8.826959 C.3        1 UNL1     0.0520
     16 C         -4.25377   0.760697   8.169981 C.3        1 UNL1     0.1322
     17 O         -3.496571   0.704256   6.940943 O.3        1 UNL1     -0.4828
     18 C         -5.613966   1.451492   8.045909 C.ar        1 UNL1     -0.0067
     19 C         -5.995167   2.013399   6.810126 C.ar        1 UNL1     -0.0516
     20 C         -7.211387   2.693464   6.674911 C.ar        1 UNL1     -0.0198
     21 C         -8.049949   2.824527   7.767368 C.ar        1 UNL1     0.1169
     22 C         -7.717539   2.253171   8.9888 C.ar        1 UNL1     -0.0198
     23 C         -6.509849   1.557143   9.119513 C.ar        1 UNL1     -0.0516
     24 O         -9.208651   3.526123   7.607455 O.3        1 UNL1     -0.5068
     25 O         -5.736942   -2.44289   8.29088 O.2        1 UNL1     -0.2917
     26 O         -5.775976   -3.401837   5.77147 O.3        1 UNL1     -0.5058
     27 O         -0.223817   -0.189565   2.542421 O.3        1 UNL1     -0.3648
     28 O         0.269502   -1.953731   -0.566685 O.3        1 UNL1     -0.3841
     29 O         -2.461347   0.34813   -0.258881 O.3        1 UNL1     -0.3863
     30 O         -2.438811   -3.325518   -0.196317 O.3        1 UNL1     -0.3829
     31 H         0.632486   -1.839994   1.820744 H        1 UNL1     0.0937
     32 H         0.0   0.0   0.0 H        1 UNL1     0.0671
     33 H         -1.8665   -1.204773   -1.407091 H        1 UNL1     0.0649
     34 H         -3.837722   -1.847739   0.070431 H        1 UNL1     0.0683
     35 H         -3.187388   -2.945973   2.164517 H        1 UNL1     0.1085
     36 H         -4.810387   -2.969602   3.450237 H        1 UNL1     0.0691
     37 H         -2.775235   0.69149   4.491752 H        1 UNL1     0.0691
     38 H         -3.317664   -1.000013   9.032369 H        1 UNL1     0.0385
     39 H         -4.879768   -0.592347   9.768699 H        1 UNL1     0.0385
     40 H         -3.658804   1.406814   8.829578 H        1 UNL1     0.0789
     41 H         -5.350335   1.932076   5.939937 H        1 UNL1     0.0623
     42 H         -7.488636   3.132653   5.719789 H        1 UNL1     0.0654
     43 H         -8.373791   2.336853   9.846845 H        1 UNL1     0.0654
     44 H         -6.287016   1.114415   10.085527 H        1 UNL1     0.0623
     45 H         -8.984005   4.43364   7.345417 H        1 UNL1     0.2921
     46 H         -5.37014   -3.914227   6.488523 H        1 UNL1     0.2922
     47 H         0.518406   0.364765   2.263702 H        1 UNL1     0.2126
     48 H         1.202528   -1.887346   -0.285993 H        1 UNL1     0.2101
     49 H         -2.023693   0.930774   -0.899802 H        1 UNL1     0.2100
     50 H         -2.673046   -3.341099   -1.147424 H        1 UNL1     0.2102
@<TRIPOS>BOND
     1     1     2    1
     2     1     6    1
     3     2     3    1
     4     3     4    1
     5     3    29    1
     6     3    33    1
     7     4     5    1
     8     5     6    1
     9     5     7    1
    10     5    35    1
    11     7     8    1
    12     8     9   ar
    13     8    13   ar
    14     9    10   ar
    15     9    36    1
    16    10    11   ar
    17    10    26    1
    18    11    12   ar
    19    11    14    1
    20    12    13   ar
    21    12    17    1
    22    13    37    1
    23    14    15    1
    24    14    25    2
    25    15    16    1
    26    15    38    1
    27    15    39    1
    28    16    17    1
    29    16    18    1
    30    16    40    1
    31    18    19   ar
    32    18    23   ar
    33    19    20   ar
    34    19    41    1
    35    20    21   ar
    36    20    42    1
    37    21    22   ar
    38    21    24    1
    39    22    23   ar
    40    22    43    1
    41    23    44    1
    42    24    45    1
    43    26    46    1
    44    27    47    1
    45    28    48    1
    46    29    49    1
    47    30    50    1
    48     1    31    1
    49     1    27    1
    50     2    32    1
    51     2    28    1
    52     4    34    1
    53     4    30    1
