@<TRIPOS>MOLECULE
*****
 50 53 0 0 0
SMALL
GASTEIGER

@<TRIPOS>ATOM
     1 C         0.6743   1.900662   0.838813 C.3        1 UNL1     0.1889
     2 C         0.187802   0.434219   0.989821 C.3        1 UNL1     0.1342
     3 C         -1.067077   0.261223   1.8592 C.3        1 UNL1     0.1174
     4 C         -1.124311   1.253941   3.022966 C.3        1 UNL1     0.1456
     5 C         -0.799978   2.69433   2.586558 C.3        1 UNL1     0.2326
     6 O         0.48491   2.737776   1.970081 O.3        1 UNL1     -0.3076
     7 O         -1.83266   3.296814   1.78537 O.3        1 UNL1     -0.4605
     8 C         -1.416965   4.263739   0.887716 C.ar        1 UNL1     0.1310
     9 C         -0.20087   4.258116   0.196066 C.ar        1 UNL1     0.0226
     10 C         0.122416   5.277198   -0.707737 C.ar        1 UNL1     0.1343
     11 C         -0.773676   6.315125   -0.959862 C.ar        1 UNL1     0.1007
     12 C         -1.973638   6.353478   -0.244736 C.ar        1 UNL1     0.1389
     13 C         -2.297325   5.330088   0.66594 C.ar        1 UNL1     0.0229
     14 C         -0.519371   7.371992   -1.9661 C.2        1 UNL1     0.1740
     15 C         -1.679194   8.275559   -2.265977 C.3        1 UNL1     0.0520
     16 C         -2.393228   8.592782   -0.959271 C.3        1 UNL1     0.1322
     17 O         -2.879795   7.384551   -0.334372 O.3        1 UNL1     -0.4828
     18 C         -1.597116   9.511612   -0.029387 C.ar        1 UNL1     -0.0067
     19 C         -0.523135   10.262091   -0.550501 C.ar        1 UNL1     -0.0516
     20 C         0.255172   11.075654   0.281555 C.ar        1 UNL1     -0.0198
     21 C         -0.025096   11.141477   1.634679 C.ar        1 UNL1     0.1169
     22 C         -1.096917   10.44021   2.17158 C.ar        1 UNL1     -0.0198
     23 C         -1.886814   9.64095   1.336534 C.ar        1 UNL1     -0.0516
     24 O         0.778024   11.914882   2.420327 O.3        1 UNL1     -0.5068
     25 O         0.535073   7.474215   -2.587536 O.2        1 UNL1     -0.2917
     26 O         1.324988   5.213499   -1.349101 O.3        1 UNL1     -0.5058
     27 O         0.228009   2.524295   -0.354792 O.3        1 UNL1     -0.3648
     28 O         1.240825   -0.33518   1.599636 O.3        1 UNL1     -0.3841
     29 O         -2.248063   0.282673   1.054872 O.3        1 UNL1     -0.3863
     30 O         -0.176928   0.851484   4.035973 O.3        1 UNL1     -0.3829
     31 H         1.763618   1.859273   0.730399 H        1 UNL1     0.0937
     32 H         -0.0   0.0   0.0 H        1 UNL1     0.0671
     33 H         -1.033054   -0.744538   2.300798 H        1 UNL1     0.0649
     34 H         -2.117246   1.231101   3.485523 H        1 UNL1     0.0683
     35 H         -0.718939   3.245259   3.531962 H        1 UNL1     0.1085
     36 H         0.513983   3.450036   0.306127 H        1 UNL1     0.0691
     37 H         -3.237329   5.383737   1.210924 H        1 UNL1     0.0691
     38 H         -2.341158   7.745751   -2.959254 H        1 UNL1     0.0385
     39 H         -1.311293   9.177786   -2.766392 H        1 UNL1     0.0385
     40 H         -3.301749   9.154676   -1.214974 H        1 UNL1     0.0789
     41 H         -0.277111   10.220493   -1.607568 H        1 UNL1     0.0623
     42 H         1.08806   11.640272   -0.130167 H        1 UNL1     0.0654
     43 H         -1.334529   10.496319   3.227185 H        1 UNL1     0.0654
     44 H         -2.722678   9.115189   1.787923 H        1 UNL1     0.0623
     45 H         0.688263   12.838647   2.135162 H        1 UNL1     0.2921
     46 H         1.216034   4.752422   -2.195829 H        1 UNL1     0.2922
     47 H         -0.449885   3.184677   -0.154252 H        1 UNL1     0.2126
     48 H         1.933813   0.29989   1.864561 H        1 UNL1     0.2101
     49 H         -2.928496   -0.283617   1.452517 H        1 UNL1     0.2100
     50 H         -0.269613   -0.114706   4.168638 H        1 UNL1     0.2102
@<TRIPOS>BOND
     1     1     2    1
     2     1     6    1
     3     2     3    1
     4     3     4    1
     5     3    29    1
     6     3    33    1
     7     4     5    1
     8     5     6    1
     9     5     7    1
    10     5    35    1
    11     7     8    1
    12     8     9   ar
    13     8    13   ar
    14     9    10   ar
    15     9    36    1
    16    10    11   ar
    17    10    26    1
    18    11    12   ar
    19    11    14    1
    20    12    13   ar
    21    12    17    1
    22    13    37    1
    23    14    15    1
    24    14    25    2
    25    15    16    1
    26    15    38    1
    27    15    39    1
    28    16    17    1
    29    16    18    1
    30    16    40    1
    31    18    19   ar
    32    18    23   ar
    33    19    20   ar
    34    19    41    1
    35    20    21   ar
    36    20    42    1
    37    21    22   ar
    38    21    24    1
    39    22    23   ar
    40    22    43    1
    41    23    44    1
    42    24    45    1
    43    26    46    1
    44    27    47    1
    45    28    48    1
    46    29    49    1
    47    30    50    1
    48     1    31    1
    49     1    27    1
    50     2    32    1
    51     2    28    1
    52     4    34    1
    53     4    30    1
