@<TRIPOS>MOLECULE
*****
 50 53 0 0 0
SMALL
GASTEIGER

@<TRIPOS>ATOM
     1 C         1.386494   0.565967   1.590007 C.3        1 UNL1     0.1889
     2 C         -0.048697   0.365554   1.033228 C.3        1 UNL1     0.1342
     3 C         -0.935503   1.619292   1.079926 C.3        1 UNL1     0.1174
     4 C         -0.660465   2.495517   2.304549 C.3        1 UNL1     0.1456
     5 C         0.843586   2.724588   2.540599 C.3        1 UNL1     0.2326
     6 O         1.510615   1.471801   2.676494 O.3        1 UNL1     -0.3076
     7 O         1.452591   3.586715   1.562249 O.3        1 UNL1     -0.4605
     8 C         0.841858   3.622196   0.321573 C.ar        1 UNL1     0.1310
     9 C         -0.037474   4.616443   -0.120635 C.ar        1 UNL1     0.0226
     10 C         -0.592717   4.572509   -1.405032 C.ar        1 UNL1     0.1343
     11 C         -0.263144   3.54487   -2.287745 C.ar        1 UNL1     0.1007
     12 C         0.581717   2.524372   -1.843248 C.ar        1 UNL1     0.1389
     13 C         1.137802   2.567372   -0.550828 C.ar        1 UNL1     0.0229
     14 C         -0.754549   3.494226   -3.684208 C.2        1 UNL1     0.1740
     15 C         -0.125986   2.447223   -4.556127 C.3        1 UNL1     0.0520
     16 C         0.040605   1.174677   -3.737085 C.3        1 UNL1     0.1322
     17 O         0.886787   1.410183   -2.590096 O.3        1 UNL1     -0.4828
     18 C         -1.280195   0.470534   -3.417093 C.ar        1 UNL1     -0.0067
     19 C         -1.538333   0.049569   -2.096349 C.ar        1 UNL1     -0.0516
     20 C         -2.715181   -0.639106   -1.778985 C.ar        1 UNL1     -0.0198
     21 C         -3.636306   -0.918752   -2.772541 C.ar        1 UNL1     0.1169
     22 C         -3.425898   -0.487896   -4.075971 C.ar        1 UNL1     -0.0198
     23 C         -2.25772   0.216949   -4.389993 C.ar        1 UNL1     -0.0516
     24 O         -4.753085   -1.624482   -2.433204 O.3        1 UNL1     -0.5068
     25 O         -1.562763   4.295471   -4.146032 O.2        1 UNL1     -0.2917
     26 O         -1.444311   5.572421   -1.774556 O.3        1 UNL1     -0.5058
     27 O         2.353129   0.820165   0.583136 O.3        1 UNL1     -0.3648
     28 O         -0.703118   -0.651386   1.814428 O.3        1 UNL1     -0.3841
     29 O         -0.853803   2.344206   -0.148878 O.3        1 UNL1     -0.3863
     30 O         -1.223008   1.863754   3.475065 O.3        1 UNL1     -0.3829
     31 H         1.691803   -0.393896   2.020736 H        1 UNL1     0.0937
     32 H         0.0   0.0   -0.0 H        1 UNL1     0.0671
     33 H         -1.980736   1.288137   1.154379 H        1 UNL1     0.0649
     34 H         -1.160396   3.463854   2.19144 H        1 UNL1     0.0683
     35 H         0.885671   3.216293   3.520565 H        1 UNL1     0.1085
     36 H         -0.289448   5.470988   0.497736 H        1 UNL1     0.0691
     37 H         1.791878   1.760065   -0.22844 H        1 UNL1     0.0691
     38 H         0.843688   2.832225   -4.889344 H        1 UNL1     0.0385
     39 H         -0.754196   2.291589   -5.439817 H        1 UNL1     0.0385
     40 H         0.60659   0.464086   -4.354534 H        1 UNL1     0.0789
     41 H         -0.826853   0.248851   -1.300275 H        1 UNL1     0.0623
     42 H         -2.897218   -0.968905   -0.759129 H        1 UNL1     0.0654
     43 H         -4.147666   -0.688363   -4.85877 H        1 UNL1     0.0654
     44 H         -2.130902   0.54765   -5.416345 H        1 UNL1     0.0623
     45 H         -4.577636   -2.095409   -1.602445 H        1 UNL1     0.2921
     46 H         -1.051277   6.431021   -1.551527 H        1 UNL1     0.2922
     47 H         2.40976   1.769405   0.405385 H        1 UNL1     0.2126
     48 H         -1.611853   -0.334756   1.980794 H        1 UNL1     0.2101
     49 H         -1.246142   3.225012   -0.039131 H        1 UNL1     0.2100
     50 H         -0.490937   1.442988   3.971795 H        1 UNL1     0.2102
@<TRIPOS>BOND
     1     1     2    1
     2     1     6    1
     3     2     3    1
     4     3     4    1
     5     3    29    1
     6     3    33    1
     7     4     5    1
     8     5     6    1
     9     5     7    1
    10     5    35    1
    11     7     8    1
    12     8     9   ar
    13     8    13   ar
    14     9    10   ar
    15     9    36    1
    16    10    11   ar
    17    10    26    1
    18    11    12   ar
    19    11    14    1
    20    12    13   ar
    21    12    17    1
    22    13    37    1
    23    14    15    1
    24    14    25    2
    25    15    16    1
    26    15    38    1
    27    15    39    1
    28    16    17    1
    29    16    18    1
    30    16    40    1
    31    18    19   ar
    32    18    23   ar
    33    19    20   ar
    34    19    41    1
    35    20    21   ar
    36    20    42    1
    37    21    22   ar
    38    21    24    1
    39    22    23   ar
    40    22    43    1
    41    23    44    1
    42    24    45    1
    43    26    46    1
    44    27    47    1
    45    28    48    1
    46    29    49    1
    47    30    50    1
    48     1    31    1
    49     1    27    1
    50     2    32    1
    51     2    28    1
    52     4    34    1
    53     4    30    1
