@<TRIPOS>MOLECULE
*****
 50 53 0 0 0
SMALL
GASTEIGER

@<TRIPOS>ATOM
     1 C         -0.024859   -1.159951   1.850594 C.3        1 UNL1     0.1889
     2 C         -0.281465   -1.008653   0.327045 C.3        1 UNL1     0.1342
     3 C         -1.726397   -1.292558   -0.111172 C.3        1 UNL1     0.1174
     4 C         -2.389872   -2.399065   0.712577 C.3        1 UNL1     0.1456
     5 C         -2.166672   -2.222942   2.225695 C.3        1 UNL1     0.2326
     6 O         -0.770085   -2.173917   2.508551 O.3        1 UNL1     -0.3076
     7 O         -2.897051   -1.11766   2.788028 O.3        1 UNL1     -0.4605
     8 C         -4.23388   -1.349035   3.057992 C.ar        1 UNL1     0.1310
     9 C         -4.933062   -2.519626   2.744681 C.ar        1 UNL1     0.0226
     10 C         -6.2855   -2.665398   3.075685 C.ar        1 UNL1     0.1343
     11 C         -6.966031   -1.652455   3.749975 C.ar        1 UNL1     0.1007
     12 C         -6.289493   -0.462613   4.031673 C.ar        1 UNL1     0.1389
     13 C         -4.930339   -0.315249   3.69639 C.ar        1 UNL1     0.0229
     14 C         -8.371475   -1.786616   4.198173 C.2        1 UNL1     0.1740
     15 C         -8.872294   -0.696732   5.099773 C.3        1 UNL1     0.0520
     16 C         -8.335311   0.634043   4.591204 C.3        1 UNL1     0.1322
     17 O         -6.890654   0.639119   4.594753 O.3        1 UNL1     -0.4828
     18 C         -8.968046   1.091141   3.274605 C.ar        1 UNL1     -0.0067
     19 C         -8.785225   2.421118   2.843384 C.ar        1 UNL1     -0.0516
     20 C         -9.389164   2.884775   1.668547 C.ar        1 UNL1     -0.0198
     21 C         -10.182448   2.0323   0.921677 C.ar        1 UNL1     0.1169
     22 C         -10.354168   0.707842   1.302678 C.ar        1 UNL1     -0.0198
     23 C         -9.735346   0.238821   2.467639 C.ar        1 UNL1     -0.0516
     24 O         -10.785033   2.529776   -0.196272 O.3        1 UNL1     -0.5068
     25 O         -9.076856   -2.755819   3.930652 O.2        1 UNL1     -0.2917
     26 O         -6.909766   -3.831558   2.741101 O.3        1 UNL1     -0.5058
     27 O         -0.075445   0.069231   2.557234 O.3        1 UNL1     -0.3648
     28 O         0.568553   -1.936095   -0.372973 O.3        1 UNL1     -0.3841
     29 O         -2.49389   -0.087438   -0.138973 O.3        1 UNL1     -0.3863
     30 O         -1.851481   -3.67716   0.309714 O.3        1 UNL1     -0.3829
     31 H         1.0131   -1.492239   1.961524 H        1 UNL1     0.0937
     32 H         0.0   0.0   0.0 H        1 UNL1     0.0671
     33 H         -1.698183   -1.644574   -1.151849 H        1 UNL1     0.0649
     34 H         -3.465592   -2.424986   0.506288 H        1 UNL1     0.0683
     35 H         -2.547423   -3.156013   2.659615 H        1 UNL1     0.1085
     36 H         -4.446252   -3.36514   2.271139 H        1 UNL1     0.0691
     37 H         -4.426726   0.621411   3.925596 H        1 UNL1     0.0691
     38 H         -8.507857   -0.909393   6.11046 H        1 UNL1     0.0385
     39 H         -9.967196   -0.721375   5.118734 H        1 UNL1     0.0385
     40 H         -8.614358   1.398794   5.328637 H        1 UNL1     0.0789
     41 H         -8.174637   3.112492   3.416827 H        1 UNL1     0.0623
     42 H         -9.250255   3.915828   1.35288 H        1 UNL1     0.0654
     43 H         -10.961076   0.027599   0.71715 H        1 UNL1     0.0654
     44 H         -9.882554   -0.80449   2.729705 H        1 UNL1     0.0623
     45 H         -10.215934   3.222584   -0.568911 H        1 UNL1     0.2921
     46 H         -6.716031   -4.506026   3.411155 H        1 UNL1     0.2922
     47 H         -0.977714   0.245358   2.858483 H        1 UNL1     0.2126
     48 H         1.440411   -1.504942   -0.460744 H        1 UNL1     0.2101
     49 H         -3.423168   -0.292323   -0.329389 H        1 UNL1     0.2100
     50 H         -1.20363   -3.958876   0.988417 H        1 UNL1     0.2102
@<TRIPOS>BOND
     1     1     2    1
     2     1     6    1
     3     2     3    1
     4     3     4    1
     5     3    29    1
     6     3    33    1
     7     4     5    1
     8     5     6    1
     9     5     7    1
    10     5    35    1
    11     7     8    1
    12     8     9   ar
    13     8    13   ar
    14     9    10   ar
    15     9    36    1
    16    10    11   ar
    17    10    26    1
    18    11    12   ar
    19    11    14    1
    20    12    13   ar
    21    12    17    1
    22    13    37    1
    23    14    15    1
    24    14    25    2
    25    15    16    1
    26    15    38    1
    27    15    39    1
    28    16    17    1
    29    16    18    1
    30    16    40    1
    31    18    19   ar
    32    18    23   ar
    33    19    20   ar
    34    19    41    1
    35    20    21   ar
    36    20    42    1
    37    21    22   ar
    38    21    24    1
    39    22    23   ar
    40    22    43    1
    41    23    44    1
    42    24    45    1
    43    26    46    1
    44    27    47    1
    45    28    48    1
    46    29    49    1
    47    30    50    1
    48     1    31    1
    49     1    27    1
    50     2    32    1
    51     2    28    1
    52     4    34    1
    53     4    30    1
