@<TRIPOS>MOLECULE
*****
 50 53 0 0 0
SMALL
GASTEIGER

@<TRIPOS>ATOM
     1 C         -0.320434   -0.202535   2.151071 C.3        1 UNL1     0.1889
     2 C         0.579125   0.11044   0.925192 C.3        1 UNL1     0.1342
     3 C         1.849741   -0.747611   0.826467 C.3        1 UNL1     0.1174
     4 C         2.442602   -1.089904   2.19558 C.3        1 UNL1     0.1456
     5 C         1.377274   -1.575586   3.195357 C.3        1 UNL1     0.2326
     6 O         0.358035   -0.588724   3.337213 O.3        1 UNL1     -0.3076
     7 O         0.859932   -2.883732   2.891328 O.3        1 UNL1     -0.4605
     8 C         -0.200337   -2.925103   2.003833 C.ar        1 UNL1     0.1310
     9 C         -0.796313   -1.812184   1.400903 C.ar        1 UNL1     0.0226
     10 C         -1.857375   -1.958929   0.499506 C.ar        1 UNL1     0.1343
     11 C         -2.333013   -3.22494   0.160645 C.ar        1 UNL1     0.1007
     12 C         -1.773132   -4.341411   0.787391 C.ar        1 UNL1     0.1389
     13 C         -0.708008   -4.193428   1.69571 C.ar        1 UNL1     0.0229
     14 C         -3.395109   -3.442612   -0.848674 C.2        1 UNL1     0.1740
     15 C         -3.625928   -4.869669   -1.250893 C.3        1 UNL1     0.0520
     16 C         -3.537048   -5.741529   -0.005936 C.3        1 UNL1     0.1322
     17 O         -2.235488   -5.624776   0.610002 O.3        1 UNL1     -0.4828
     18 C         -4.713028   -5.56212   0.957188 C.ar        1 UNL1     -0.0067
     19 C         -5.400365   -4.331367   0.989266 C.ar        1 UNL1     -0.0516
     20 C         -6.449603   -4.117887   1.891201 C.ar        1 UNL1     -0.0198
     21 C         -6.815382   -5.122405   2.769254 C.ar        1 UNL1     0.1169
     22 C         -6.179618   -6.356795   2.738861 C.ar        1 UNL1     -0.0198
     23 C         -5.142568   -6.576884   1.824451 C.ar        1 UNL1     -0.0516
     24 O         -7.81663   -4.864991   3.658996 O.3        1 UNL1     -0.5068
     25 O         -4.005789   -2.528023   -1.395557 O.2        1 UNL1     -0.2917
     26 O         -2.395281   -0.833289   -0.052922 O.3        1 UNL1     -0.5058
     27 O         -1.396022   -1.078702   1.854038 O.3        1 UNL1     -0.3648
     28 O         0.996297   1.486055   1.004917 O.3        1 UNL1     -0.3841
     29 O         1.619458   -1.903539   0.018424 O.3        1 UNL1     -0.3863
     30 O         3.08853   0.082125   2.738548 O.3        1 UNL1     -0.3829
     31 H         -0.807935   0.738114   2.429641 H        1 UNL1     0.0937
     32 H         0.0   0.0   -0.0 H        1 UNL1     0.0671
     33 H         2.608725   -0.162284   0.28883 H        1 UNL1     0.0649
     34 H         3.214403   -1.859925   2.086986 H        1 UNL1     0.0683
     35 H         1.913068   -1.620511   4.151801 H        1 UNL1     0.1085
     36 H         -0.435633   -0.805224   1.57996 H        1 UNL1     0.0691
     37 H         -0.290274   -5.07837   2.170968 H        1 UNL1     0.0691
     38 H         -2.851608   -5.138385   -1.977356 H        1 UNL1     0.0385
     39 H         -4.600562   -4.950398   -1.744196 H        1 UNL1     0.0385
     40 H         -3.59065   -6.78704   -0.338432 H        1 UNL1     0.0789
     41 H         -5.126296   -3.523882   0.316581 H        1 UNL1     0.0623
     42 H         -6.963999   -3.160352   1.914353 H        1 UNL1     0.0654
     43 H         -6.468051   -7.155499   3.411757 H        1 UNL1     0.0654
     44 H         -4.675043   -7.556809   1.82115 H        1 UNL1     0.0623
     45 H         -7.4968   -5.077931   4.550669 H        1 UNL1     0.2921
     46 H         -2.427556   -0.930109   -1.017804 H        1 UNL1     0.2922
     47 H         -2.026972   -1.094836   2.587183 H        1 UNL1     0.2126
     48 H         1.00339   1.721696   1.952627 H        1 UNL1     0.2101
     49 H         2.183373   -1.872191   -0.77076 H        1 UNL1     0.2100
     50 H         3.877407   0.273024   2.189965 H        1 UNL1     0.2102
@<TRIPOS>BOND
     1     1     2    1
     2     1     6    1
     3     2     3    1
     4     3     4    1
     5     3    29    1
     6     3    33    1
     7     4     5    1
     8     5     6    1
     9     5     7    1
    10     5    35    1
    11     7     8    1
    12     8     9   ar
    13     8    13   ar
    14     9    10   ar
    15     9    36    1
    16    10    11   ar
    17    10    26    1
    18    11    12   ar
    19    11    14    1
    20    12    13   ar
    21    12    17    1
    22    13    37    1
    23    14    15    1
    24    14    25    2
    25    15    16    1
    26    15    38    1
    27    15    39    1
    28    16    17    1
    29    16    18    1
    30    16    40    1
    31    18    19   ar
    32    18    23   ar
    33    19    20   ar
    34    19    41    1
    35    20    21   ar
    36    20    42    1
    37    21    22   ar
    38    21    24    1
    39    22    23   ar
    40    22    43    1
    41    23    44    1
    42    24    45    1
    43    26    46    1
    44    27    47    1
    45    28    48    1
    46    29    49    1
    47    30    50    1
    48     1    31    1
    49     1    27    1
    50     2    32    1
    51     2    28    1
    52     4    34    1
    53     4    30    1
