@<TRIPOS>MOLECULE
*****
 50 53 0 0 0
SMALL
GASTEIGER

@<TRIPOS>ATOM
     1 C         -0.706407   -1.825188   0.969785 C.3        1 UNL1     0.1889
     2 C         -0.006985   -1.079012   -0.198106 C.3        1 UNL1     0.1342
     3 C         -0.625772   -1.330466   -1.581703 C.3        1 UNL1     0.1174
     4 C         -1.163356   -2.754754   -1.741465 C.3        1 UNL1     0.1456
     5 C         -2.005309   -3.206697   -0.534309 C.3        1 UNL1     0.2326
     6 O         -1.234262   -3.106714   0.66083 O.3        1 UNL1     -0.3076
     7 O         -3.27906   -2.542945   -0.443134 O.3        1 UNL1     -0.4605
     8 C         -4.310968   -3.283937   0.104243 C.ar        1 UNL1     0.1310
     9 C         -4.618368   -4.609318   -0.221595 C.ar        1 UNL1     0.0226
     10 C         -5.676136   -5.281354   0.402423 C.ar        1 UNL1     0.1343
     11 C         -6.437927   -4.651337   1.385577 C.ar        1 UNL1     0.1007
     12 C         -6.166623   -3.314758   1.6901 C.ar        1 UNL1     0.1389
     13 C         -5.104674   -2.638411   1.060615 C.ar        1 UNL1     0.0229
     14 C         -7.512758   -5.340604   2.136446 C.2        1 UNL1     0.1740
     15 C         -8.074836   -4.586074   3.305335 C.3        1 UNL1     0.0520
     16 C         -8.207518   -3.12071   2.914106 C.3        1 UNL1     0.1322
     17 O         -6.921023   -2.565273   2.562693 O.3        1 UNL1     -0.4828
     18 C         -9.314481   -2.853826   1.891301 C.ar        1 UNL1     -0.0067
     19 C         -9.033019   -2.066858   0.755663 C.ar        1 UNL1     -0.0516
     20 C         -10.034426   -1.764215   -0.174688 C.ar        1 UNL1     -0.0198
     21 C         -11.320083   -2.235357   0.022643 C.ar        1 UNL1     0.1169
     22 C         -11.620386   -3.040529   1.113678 C.ar        1 UNL1     -0.0198
     23 C         -10.614888   -3.358646   2.034456 C.ar        1 UNL1     -0.0516
     24 O         -12.277759   -1.888717   -0.884604 O.3        1 UNL1     -0.5068
     25 O         -7.882344   -6.485674   1.890064 O.2        1 UNL1     -0.2917
     26 O         -5.924533   -6.572676   0.038595 O.3        1 UNL1     -0.5058
     27 O         -1.647375   -1.02573   1.668523 O.3        1 UNL1     -0.3648
     28 O         1.365384   -1.509987   -0.257864 O.3        1 UNL1     -0.3841
     29 O         -1.601497   -0.332845   -1.889674 O.3        1 UNL1     -0.3863
     30 O         -0.053429   -3.665035   -1.900019 O.3        1 UNL1     -0.3829
     31 H         0.069318   -2.040121   1.712842 H        1 UNL1     0.0937
     32 H         0.0   0.0   0.0 H        1 UNL1     0.0671
     33 H         0.167426   -1.204165   -2.331773 H        1 UNL1     0.0649
     34 H         -1.768911   -2.826017   -2.651754 H        1 UNL1     0.0683
     35 H         -2.175406   -4.275366   -0.715675 H        1 UNL1     0.1085
     36 H         -4.028816   -5.172068   -0.93704 H        1 UNL1     0.0691
     37 H         -4.914736   -1.597777   1.314578 H        1 UNL1     0.0691
     38 H         -7.381206   -4.709748   4.143851 H        1 UNL1     0.0385
     39 H         -9.036319   -5.02764   3.588794 H        1 UNL1     0.0385
     40 H         -8.506851   -2.570574   3.816475 H        1 UNL1     0.0789
     41 H         -8.033932   -1.67747   0.582881 H        1 UNL1     0.0623
     42 H         -9.807645   -1.146494   -1.040138 H        1 UNL1     0.0654
     43 H         -12.62036   -3.427272   1.269856 H        1 UNL1     0.0654
     44 H         -10.882477   -3.99885   2.869549 H        1 UNL1     0.0623
     45 H         -12.379125   -0.923201   -0.869785 H        1 UNL1     0.2921
     46 H         -5.890309   -7.142196   0.823381 H        1 UNL1     0.2922
     47 H         -1.227005   -0.214395   1.986147 H        1 UNL1     0.2126
     48 H         1.785278   -1.222805   0.575771 H        1 UNL1     0.2101
     49 H         -1.164436   0.519865   -2.04348 H        1 UNL1     0.2100
     50 H         0.387998   -3.457176   -2.749519 H        1 UNL1     0.2102
@<TRIPOS>BOND
     1     1     2    1
     2     1     6    1
     3     2     3    1
     4     3     4    1
     5     3    29    1
     6     3    33    1
     7     4     5    1
     8     5     6    1
     9     5     7    1
    10     5    35    1
    11     7     8    1
    12     8     9   ar
    13     8    13   ar
    14     9    10   ar
    15     9    36    1
    16    10    11   ar
    17    10    26    1
    18    11    12   ar
    19    11    14    1
    20    12    13   ar
    21    12    17    1
    22    13    37    1
    23    14    15    1
    24    14    25    2
    25    15    16    1
    26    15    38    1
    27    15    39    1
    28    16    17    1
    29    16    18    1
    30    16    40    1
    31    18    19   ar
    32    18    23   ar
    33    19    20   ar
    34    19    41    1
    35    20    21   ar
    36    20    42    1
    37    21    22   ar
    38    21    24    1
    39    22    23   ar
    40    22    43    1
    41    23    44    1
    42    24    45    1
    43    26    46    1
    44    27    47    1
    45    28    48    1
    46    29    49    1
    47    30    50    1
    48     1    31    1
    49     1    27    1
    50     2    32    1
    51     2    28    1
    52     4    34    1
    53     4    30    1
