@<TRIPOS>MOLECULE
*****
 50 53 0 0 0
SMALL
GASTEIGER

@<TRIPOS>ATOM
     1 C         1.701796   -0.788309   -1.119493 C.3        1 UNL1     0.1889
     2 C         0.826958   -0.702907   0.160079 C.3        1 UNL1     0.1342
     3 C         1.588623   -0.299286   1.431858 C.3        1 UNL1     0.1174
     4 C         3.017616   -0.846895   1.466809 C.3        1 UNL1     0.1456
     5 C         3.764302   -0.63308   0.137483 C.3        1 UNL1     0.2326
     6 O         3.036608   -1.234546   -0.930959 O.3        1 UNL1     -0.3076
     7 O         4.104994   0.742461   -0.113788 O.3        1 UNL1     -0.4605
     8 C         3.041659   1.621143   -0.217547 C.ar        1 UNL1     0.1310
     9 C         2.040475   1.570045   -1.193416 C.ar        1 UNL1     0.0226
     10 C         0.992357   2.498071   -1.204272 C.ar        1 UNL1     0.1343
     11 C         0.906932   3.486201   -0.224403 C.ar        1 UNL1     0.1007
     12 C         1.923007   3.572578   0.731062 C.ar        1 UNL1     0.1389
     13 C         2.978201   2.64096   0.740193 C.ar        1 UNL1     0.0229
     14 C         -0.223211   4.439939   -0.138875 C.2        1 UNL1     0.1740
     15 C         -0.267961   5.284139   1.100832 C.3        1 UNL1     0.0520
     16 C         1.151459   5.718213   1.439628 C.3        1 UNL1     0.1322
     17 O         1.996288   4.570256   1.675274 O.3        1 UNL1     -0.4828
     18 C         1.732117   6.743286   0.462497 C.ar        1 UNL1     -0.0067
     19 C         0.859517   7.581462   -0.261549 C.ar        1 UNL1     -0.0516
     20 C         1.354933   8.496842   -1.197821 C.ar        1 UNL1     -0.0198
     21 C         2.717295   8.578333   -1.423994 C.ar        1 UNL1     0.1169
     22 C         3.604124   7.789827   -0.702446 C.ar        1 UNL1     -0.0198
     23 C         3.110254   6.887392   0.247163 C.ar        1 UNL1     -0.0516
     24 O         3.160184   9.454781   -2.370614 O.3        1 UNL1     -0.5068
     25 O         -1.121941   4.499936   -0.973842 O.2        1 UNL1     -0.2917
     26 O         0.048366   2.394062   -2.183887 O.3        1 UNL1     -0.5058
     27 O         1.648906   0.382044   -1.919657 O.3        1 UNL1     -0.3648
     28 O         0.244963   -1.997316   0.401931 O.3        1 UNL1     -0.3841
     29 O         1.532937   1.114999   1.628903 O.3        1 UNL1     -0.3863
     30 O         2.975868   -2.261773   1.753283 O.3        1 UNL1     -0.3829
     31 H         1.258343   -1.566482   -1.750266 H        1 UNL1     0.0937
     32 H         0.0   0.0   0.0 H        1 UNL1     0.0671
     33 H         1.060324   -0.734672   2.291545 H        1 UNL1     0.0649
     34 H         3.580348   -0.372045   2.278137 H        1 UNL1     0.0683
     35 H         4.689529   -1.210418   0.257963 H        1 UNL1     0.1085
     36 H         2.019771   0.792294   -1.948927 H        1 UNL1     0.0691
     37 H         3.757439   2.730548   1.49402 H        1 UNL1     0.0691
     38 H         -0.696005   4.672869   1.902489 H        1 UNL1     0.0385
     39 H         -0.932381   6.138004   0.92984 H        1 UNL1     0.0385
     40 H         1.109978   6.232272   2.409444 H        1 UNL1     0.0789
     41 H         -0.214598   7.530319   -0.108868 H        1 UNL1     0.0623
     42 H         0.671039   9.129321   -1.75842 H        1 UNL1     0.0654
     43 H         4.673899   7.856204   -0.860832 H        1 UNL1     0.0654
     44 H         3.832412   6.294551   0.80022 H        1 UNL1     0.0623
     45 H         4.002619   9.831869   -2.069241 H        1 UNL1     0.2921
     46 H         -0.146721   1.457727   -2.347072 H        1 UNL1     0.2922
     47 H         1.822061   1.165366   -1.379024 H        1 UNL1     0.2126
     48 H         -0.114624   -1.977111   1.309687 H        1 UNL1     0.2101
     49 H         1.436495   1.312973   2.574049 H        1 UNL1     0.2100
     50 H         2.799156   -2.370458   2.710714 H        1 UNL1     0.2102
@<TRIPOS>BOND
     1     1     2    1
     2     1     6    1
     3     2     3    1
     4     3     4    1
     5     3    29    1
     6     3    33    1
     7     4     5    1
     8     5     6    1
     9     5     7    1
    10     5    35    1
    11     7     8    1
    12     8     9   ar
    13     8    13   ar
    14     9    10   ar
    15     9    36    1
    16    10    11   ar
    17    10    26    1
    18    11    12   ar
    19    11    14    1
    20    12    13   ar
    21    12    17    1
    22    13    37    1
    23    14    15    1
    24    14    25    2
    25    15    16    1
    26    15    38    1
    27    15    39    1
    28    16    17    1
    29    16    18    1
    30    16    40    1
    31    18    19   ar
    32    18    23   ar
    33    19    20   ar
    34    19    41    1
    35    20    21   ar
    36    20    42    1
    37    21    22   ar
    38    21    24    1
    39    22    23   ar
    40    22    43    1
    41    23    44    1
    42    24    45    1
    43    26    46    1
    44    27    47    1
    45    28    48    1
    46    29    49    1
    47    30    50    1
    48     1    31    1
    49     1    27    1
    50     2    32    1
    51     2    28    1
    52     4    34    1
    53     4    30    1
