@<TRIPOS>MOLECULE
*****
 50 53 0 0 0
SMALL
GASTEIGER

@<TRIPOS>ATOM
     1 C         -0.336123   -1.331708   1.698346 C.3        1 UNL1     0.1889
     2 C         -0.464698   -0.974869   0.192997 C.3        1 UNL1     0.1342
     3 C         -1.9051   -0.957943   -0.341251 C.3        1 UNL1     0.1174
     4 C         -2.794174   -2.016884   0.31549 C.3        1 UNL1     0.1456
     5 C         -2.643769   -2.046241   1.847443 C.3        1 UNL1     0.2326
     6 O         -1.279609   -2.268096   2.197752 O.3        1 UNL1     -0.3076
     7 O         -3.216719   -0.899533   2.501745 O.3        1 UNL1     -0.4605
     8 C         -3.728087   -1.117009   3.768527 C.ar        1 UNL1     0.1310
     9 C         -4.54715   -2.189106   4.138718 C.ar        1 UNL1     0.0226
     10 C         -5.001645   -2.331762   5.455148 C.ar        1 UNL1     0.1343
     11 C         -4.628212   -1.41788   6.439632 C.ar        1 UNL1     0.1007
     12 C         -3.844291   -0.320615   6.073217 C.ar        1 UNL1     0.1389
     13 C         -3.389603   -0.175957   4.748919 C.ar        1 UNL1     0.0229
     14 C         -5.010515   -1.56641   7.862986 C.2        1 UNL1     0.1740
     15 C         -4.340366   -0.622017   8.817224 C.3        1 UNL1     0.0520
     16 C         -4.267439   0.751434   8.16433 C.3        1 UNL1     0.1322
     17 O         -3.507851   0.695964   6.936723 O.3        1 UNL1     -0.4828
     18 C         -5.62504   1.44716   8.039395 C.ar        1 UNL1     -0.0067
     19 C         -6.000566   2.016334   6.805201 C.ar        1 UNL1     -0.0516
     20 C         -7.214191   2.700927   6.669522 C.ar        1 UNL1     -0.0198
     21 C         -8.055769   2.829299   7.759979 C.ar        1 UNL1     0.1169
     22 C         -7.729018   2.250901   8.979622 C.ar        1 UNL1     -0.0198
     23 C         -6.523959   1.550396   9.110694 C.ar        1 UNL1     -0.0516
     24 O         -9.211731   3.53536   7.599887 O.3        1 UNL1     -0.5068
     25 O         -5.761626   -2.447471   8.272923 O.2        1 UNL1     -0.2917
     26 O         -5.798586   -3.39906   5.750693 O.3        1 UNL1     -0.5058
     27 O         -0.228988   -0.195745   2.541492 O.3        1 UNL1     -0.3648
     28 O         0.264288   -1.953037   -0.57151 O.3        1 UNL1     -0.3841
     29 O         -2.459755   0.356691   -0.262335 O.3        1 UNL1     -0.3863
     30 O         -2.449048   -3.317166   -0.209717 O.3        1 UNL1     -0.3829
     31 H         0.623342   -1.846937   1.816864 H        1 UNL1     0.0937
     32 H         0.0   0.0   0.0 H        1 UNL1     0.0671
     33 H         -1.867801   -1.194984   -1.413697 H        1 UNL1     0.0649
     34 H         -3.843716   -1.835656   0.058545 H        1 UNL1     0.0683
     35 H         -3.200651   -2.941638   2.150798 H        1 UNL1     0.1085
     36 H         -4.82667   -2.963432   3.432737 H        1 UNL1     0.0691
     37 H         -2.781413   0.687785   4.48902 H        1 UNL1     0.0691
     38 H         -3.339074   -1.014882   9.023616 H        1 UNL1     0.0385
     39 H         -4.901343   -0.604068   9.757841 H        1 UNL1     0.0385
     40 H         -3.671691   1.393651   8.827024 H        1 UNL1     0.0789
     41 H         -5.353258   1.937228   5.936647 H        1 UNL1     0.0623
     42 H         -7.487038   3.145678   5.715707 H        1 UNL1     0.0654
     43 H         -8.387699   2.332464   9.836008 H        1 UNL1     0.0654
     44 H         -6.305572   1.102227   10.075213 H        1 UNL1     0.0623
     45 H         -8.983214   4.445101   7.349152 H        1 UNL1     0.2921
     46 H         -5.39719   -3.913508   6.468772 H        1 UNL1     0.2922
     47 H         0.513703   0.358474   2.263804 H        1 UNL1     0.2126
     48 H         1.199913   -1.878201   -0.301808 H        1 UNL1     0.2101
     49 H         -2.019272   0.939606   -0.901067 H        1 UNL1     0.2100
     50 H         -2.681621   -3.32942   -1.16128 H        1 UNL1     0.2102
@<TRIPOS>BOND
     1     1     2    1
     2     1     6    1
     3     2     3    1
     4     3     4    1
     5     3    29    1
     6     3    33    1
     7     4     5    1
     8     5     6    1
     9     5     7    1
    10     5    35    1
    11     7     8    1
    12     8     9   ar
    13     8    13   ar
    14     9    10   ar
    15     9    36    1
    16    10    11   ar
    17    10    26    1
    18    11    12   ar
    19    11    14    1
    20    12    13   ar
    21    12    17    1
    22    13    37    1
    23    14    15    1
    24    14    25    2
    25    15    16    1
    26    15    38    1
    27    15    39    1
    28    16    17    1
    29    16    18    1
    30    16    40    1
    31    18    19   ar
    32    18    23   ar
    33    19    20   ar
    34    19    41    1
    35    20    21   ar
    36    20    42    1
    37    21    22   ar
    38    21    24    1
    39    22    23   ar
    40    22    43    1
    41    23    44    1
    42    24    45    1
    43    26    46    1
    44    27    47    1
    45    28    48    1
    46    29    49    1
    47    30    50    1
    48     1    31    1
    49     1    27    1
    50     2    32    1
    51     2    28    1
    52     4    34    1
    53     4    30    1
