@<TRIPOS>MOLECULE
*****
 50 53 0 0 0
SMALL
GASTEIGER

@<TRIPOS>ATOM
     1 C         -0.332502   -1.328473   1.701589 C.3        1 UNL1     0.1889
     2 C         -0.462425   -0.97546   0.195454 C.3        1 UNL1     0.1342
     3 C         -1.903053   -0.963042   -0.338306 C.3        1 UNL1     0.1174
     4 C         -2.789496   -2.022444   0.321242 C.3        1 UNL1     0.1456
     5 C         -2.638474   -2.047864   1.853205 C.3        1 UNL1     0.2326
     6 O         -1.27369   -2.265815   2.203536 O.3        1 UNL1     -0.3076
     7 O         -3.213778   -0.90092   2.505023 O.3        1 UNL1     -0.4605
     8 C         -3.724198   -1.116576   3.772498 C.ar        1 UNL1     0.1310
     9 C         -4.540704   -2.189648   4.145503 C.ar        1 UNL1     0.0226
     10 C         -4.994402   -2.330239   5.46243 C.ar        1 UNL1     0.1343
     11 C         -4.622681   -1.413207   6.444629 C.ar        1 UNL1     0.1007
     12 C         -3.841373   -0.315037   6.075354 C.ar        1 UNL1     0.1389
     13 C         -3.387489   -0.172462   4.750555 C.ar        1 UNL1     0.0229
     14 C         -5.004136   -1.559258   7.868468 C.2        1 UNL1     0.1740
     15 C         -4.33578   -0.611115   8.820242 C.3        1 UNL1     0.0520
     16 C         -4.266191   0.760961   8.1641 C.3        1 UNL1     0.1322
     17 O         -3.506921   0.704324   6.936349 O.3        1 UNL1     -0.4828
     18 C         -5.625406   1.453322   8.038028 C.ar        1 UNL1     -0.0067
     19 C         -6.003053   2.01793   6.802384 C.ar        1 UNL1     -0.0516
     20 C         -7.218276   2.699443   6.665499 C.ar        1 UNL1     -0.0198
     21 C         -8.059362   2.829269   7.756162 C.ar        1 UNL1     0.1169
     22 C         -7.73048   2.255287   8.977317 C.ar        1 UNL1     -0.0198
     23 C         -6.523792   1.557829   9.10965 C.ar        1 UNL1     -0.0516
     24 O         -9.216987   3.532303   7.594758 O.3        1 UNL1     -0.5068
     25 O         -5.753107   -2.441048   8.280746 O.2        1 UNL1     -0.2917
     26 O         -5.788823   -3.398637   5.76077 O.3        1 UNL1     -0.5058
     27 O         -0.227632   -0.190293   2.542028 O.3        1 UNL1     -0.3648
     28 O         0.268495   -1.953772   -0.567021 O.3        1 UNL1     -0.3841
     29 O         -2.460649   0.350517   -0.262275 O.3        1 UNL1     -0.3863
     30 O         -2.441621   -3.323173   -0.201037 O.3        1 UNL1     -0.3829
     31 H         0.628167   -1.841253   1.820967 H        1 UNL1     0.0937
     32 H         0.0   0.0   0.0 H        1 UNL1     0.0671
     33 H         -1.865604   -1.202516   -1.410207 H        1 UNL1     0.0649
     34 H         -3.839537   -1.844192   0.064255 H        1 UNL1     0.0683
     35 H         -3.193222   -2.943802   2.158864 H        1 UNL1     0.1085
     36 H         -4.818727   -2.966259   3.441444 H        1 UNL1     0.0691
     37 H         -2.781347   0.692039   4.488408 H        1 UNL1     0.0691
     38 H         -3.333528   -1.001232   9.02719 H        1 UNL1     0.0385
     39 H         -4.896458   -0.592225   9.761019 H        1 UNL1     0.0385
     40 H         -3.671658   1.406076   8.825067 H        1 UNL1     0.0789
     41 H         -5.356187   1.937615   5.933612 H        1 UNL1     0.0623
     42 H         -7.492773   3.140702   5.710537 H        1 UNL1     0.0654
     43 H         -8.388734   2.337997   9.833922 H        1 UNL1     0.0654
     44 H         -6.30374   1.113064   10.075365 H        1 UNL1     0.0623
     45 H         -8.990798   4.44028   7.335659 H        1 UNL1     0.2921
     46 H         -5.385317   -3.911267   6.478966 H        1 UNL1     0.2922
     47 H         0.515399   0.363536   2.26447 H        1 UNL1     0.2126
     48 H         1.2013   -1.88787   -0.285481 H        1 UNL1     0.2101
     49 H         -2.021596   0.932968   -0.902413 H        1 UNL1     0.2100
     50 H         -2.674508   -3.338186   -1.152484 H        1 UNL1     0.2102
@<TRIPOS>BOND
     1     1     2    1
     2     1     6    1
     3     2     3    1
     4     3     4    1
     5     3    29    1
     6     3    33    1
     7     4     5    1
     8     5     6    1
     9     5     7    1
    10     5    35    1
    11     7     8    1
    12     8     9   ar
    13     8    13   ar
    14     9    10   ar
    15     9    36    1
    16    10    11   ar
    17    10    26    1
    18    11    12   ar
    19    11    14    1
    20    12    13   ar
    21    12    17    1
    22    13    37    1
    23    14    15    1
    24    14    25    2
    25    15    16    1
    26    15    38    1
    27    15    39    1
    28    16    17    1
    29    16    18    1
    30    16    40    1
    31    18    19   ar
    32    18    23   ar
    33    19    20   ar
    34    19    41    1
    35    20    21   ar
    36    20    42    1
    37    21    22   ar
    38    21    24    1
    39    22    23   ar
    40    22    43    1
    41    23    44    1
    42    24    45    1
    43    26    46    1
    44    27    47    1
    45    28    48    1
    46    29    49    1
    47    30    50    1
    48     1    31    1
    49     1    27    1
    50     2    32    1
    51     2    28    1
    52     4    34    1
    53     4    30    1
