@<TRIPOS>MOLECULE
*****
 50 53 0 0 0
SMALL
GASTEIGER

@<TRIPOS>ATOM
     1 C         -0.336267   -1.321124   1.706564 C.3        1 UNL1     0.1889
     2 C         -0.480342   -0.965339   0.20237 C.3        1 UNL1     0.1342
     3 C         -1.927934   -0.922038   -0.310531 C.3        1 UNL1     0.1174
     4 C         -2.827247   -1.962237   0.362032 C.3        1 UNL1     0.1456
     5 C         -2.654689   -1.990957   1.89166 C.3        1 UNL1     0.2326
     6 O         -1.289969   -2.238111   2.222299 O.3        1 UNL1     -0.3076
     7 O         -3.195816   -0.831983   2.551417 O.3        1 UNL1     -0.4605
     8 C         -3.702676   -1.039   3.821758 C.ar        1 UNL1     0.1310
     9 C         -4.543772   -2.092134   4.196946 C.ar        1 UNL1     0.0226
     10 C         -4.991657   -2.22574   5.516586 C.ar        1 UNL1     0.1343
     11 C         -4.589665   -1.32202   6.499201 C.ar        1 UNL1     0.1007
     12 C         -3.783085   -0.242908   6.128079 C.ar        1 UNL1     0.1389
     13 C         -3.335017   -0.107296   4.800572 C.ar        1 UNL1     0.0229
     14 C         -4.964722   -1.463312   7.925217 C.2        1 UNL1     0.1740
     15 C         -4.265615   -0.535979   8.875402 C.3        1 UNL1     0.0520
     16 C         -4.165499   0.836188   8.22341 C.3        1 UNL1     0.1322
     17 O         -3.416577   0.764491   6.990103 O.3        1 UNL1     -0.4828
     18 C         -5.507377   1.563565   8.109347 C.ar        1 UNL1     -0.0067
     19 C         -5.872059   2.155731   6.882742 C.ar        1 UNL1     -0.0516
     20 C         -7.070264   2.868885   6.757531 C.ar        1 UNL1     -0.0198
     21 C         -7.906986   3.003   7.851029 C.ar        1 UNL1     0.1169
     22 C         -7.591296   2.40288   9.063067 C.ar        1 UNL1     -0.0198
     23 C         -6.402019   1.674064   9.183498 C.ar        1 UNL1     -0.0516
     24 O         -9.047101   3.736618   7.701556 O.3        1 UNL1     -0.5068
     25 O         -5.733129   -2.327097   8.33984 O.2        1 UNL1     -0.2917
     26 O         -5.811081   -3.274501   5.816969 O.3        1 UNL1     -0.5058
     27 O         -0.19491   -0.185491   2.5451 O.3        1 UNL1     -0.3648
     28 O         0.218363   -1.959049   -0.570326 O.3        1 UNL1     -0.3841
     29 O         -2.456108   0.403162   -0.226799 O.3        1 UNL1     -0.3863
     30 O         -2.514895   -3.270096   -0.164876 O.3        1 UNL1     -0.3829
     31 H         0.614821   -1.854372   1.812188 H        1 UNL1     0.0937
     32 H         0.0   0.0   0.0 H        1 UNL1     0.0671
     33 H         -1.911112   -1.16221   -1.382797 H        1 UNL1     0.0649
     34 H         -3.876831   -1.761519   0.120191 H        1 UNL1     0.0683
     35 H         -3.224028   -2.87482   2.205535 H        1 UNL1     0.1085
     36 H         -4.846546   -2.858867   3.492269 H        1 UNL1     0.0691
     37 H         -2.708776   0.742328   4.537033 H        1 UNL1     0.0691
     38 H         -3.272261   -0.952361   9.073897 H        1 UNL1     0.0385
     39 H         -4.819   -0.506081   9.820204 H        1 UNL1     0.0385
     40 H         -3.549999   1.463518   8.8823 H        1 UNL1     0.0789
     41 H         -5.228096   2.072558   6.012085 H        1 UNL1     0.0623
     42 H         -7.334627   3.331014   5.809607 H        1 UNL1     0.0654
     43 H         -8.246595   2.488908   9.921608 H        1 UNL1     0.0654
     44 H         -6.192163   1.209609   10.142188 H        1 UNL1     0.0623
     45 H         -8.79804   4.649966   7.485964 H        1 UNL1     0.2921
     46 H         -5.416472   -3.79905   6.531493 H        1 UNL1     0.2922
     47 H         0.549793   0.357363   2.250846 H        1 UNL1     0.2126
     48 H         1.162863   -1.88427   -0.333555 H        1 UNL1     0.2101
     49 H         -2.019945   0.974089   -0.879177 H        1 UNL1     0.2100
     50 H         -2.76701   -3.281888   -1.111455 H        1 UNL1     0.2102
@<TRIPOS>BOND
     1     1     2    1
     2     1     6    1
     3     2     3    1
     4     3     4    1
     5     3    29    1
     6     3    33    1
     7     4     5    1
     8     5     6    1
     9     5     7    1
    10     5    35    1
    11     7     8    1
    12     8     9   ar
    13     8    13   ar
    14     9    10   ar
    15     9    36    1
    16    10    11   ar
    17    10    26    1
    18    11    12   ar
    19    11    14    1
    20    12    13   ar
    21    12    17    1
    22    13    37    1
    23    14    15    1
    24    14    25    2
    25    15    16    1
    26    15    38    1
    27    15    39    1
    28    16    17    1
    29    16    18    1
    30    16    40    1
    31    18    19   ar
    32    18    23   ar
    33    19    20   ar
    34    19    41    1
    35    20    21   ar
    36    20    42    1
    37    21    22   ar
    38    21    24    1
    39    22    23   ar
    40    22    43    1
    41    23    44    1
    42    24    45    1
    43    26    46    1
    44    27    47    1
    45    28    48    1
    46    29    49    1
    47    30    50    1
    48     1    31    1
    49     1    27    1
    50     2    32    1
    51     2    28    1
    52     4    34    1
    53     4    30    1
