@<TRIPOS>MOLECULE
*****
 50 53 0 0 0
SMALL
GASTEIGER

@<TRIPOS>ATOM
     1 C         -0.335531   -1.357924   1.677577 C.3        1 UNL1     0.1889
     2 C         -0.463937   -0.978108   0.177847 C.3        1 UNL1     0.1342
     3 C         -1.904186   -0.954182   -0.356546 C.3        1 UNL1     0.1174
     4 C         -2.792573   -2.023832   0.283559 C.3        1 UNL1     0.1456
     5 C         -2.642621   -2.076595   1.814929 C.3        1 UNL1     0.2326
     6 O         -1.278384   -2.302664   2.162232 O.3        1 UNL1     -0.3076
     7 O         -3.216741   -0.940555   2.486585 O.3        1 UNL1     -0.4605
     8 C         -3.738505   -1.180304   3.74508 C.ar        1 UNL1     0.1310
     9 C         -4.561116   -2.2583   4.089374 C.ar        1 UNL1     0.0226
     10 C         -5.026372   -2.424168   5.399308 C.ar        1 UNL1     0.1343
     11 C         -4.660475   -1.528287   6.40298 C.ar        1 UNL1     0.1007
     12 C         -3.873023   -0.425172   6.062627 C.ar        1 UNL1     0.1389
     13 C         -3.407507   -0.257162   4.744864 C.ar        1 UNL1     0.0229
     14 C         -5.054414   -1.701988   7.820299 C.2        1 UNL1     0.1740
     15 C         -4.391548   -0.77526   8.796686 C.3        1 UNL1     0.0520
     16 C         -4.312592   0.609597   8.169076 C.3        1 UNL1     0.1322
     17 O         -3.543079   0.575577   6.946881 O.3        1 UNL1     -0.4828
     18 C         -5.668766   1.308358   8.045587 C.ar        1 UNL1     -0.0067
     19 C         -5.717424   2.661105   7.650717 C.ar        1 UNL1     -0.0516
     20 C         -6.937426   3.343469   7.573668 C.ar        1 UNL1     -0.0198
     21 C         -8.112387   2.687832   7.89528 C.ar        1 UNL1     0.1169
     22 C         -8.100096   1.346504   8.255181 C.ar        1 UNL1     -0.0198
     23 C         -6.88208   0.658772   8.31448 C.ar        1 UNL1     -0.0516
     24 O         -9.277425   3.395349   7.845216 O.3        1 UNL1     -0.5068
     25 O         -5.809297   -2.589734   8.208299 O.2        1 UNL1     -0.2917
     26 O         -5.826252   -3.496043   5.669235 O.3        1 UNL1     -0.5058
     27 O         -0.229617   -0.234958   2.53811 O.3        1 UNL1     -0.3648
     28 O         0.266112   -1.943804   -0.601361 O.3        1 UNL1     -0.3841
     29 O         -2.459973   0.358619   -0.257624 O.3        1 UNL1     -0.3863
     30 O         -2.446187   -3.315603   -0.261449 O.3        1 UNL1     -0.3829
     31 H         0.62433   -1.874109   1.788478 H        1 UNL1     0.0937
     32 H         0.0   0.0   0.0 H        1 UNL1     0.0671
     33 H         -1.866352   -1.174689   -1.432495 H        1 UNL1     0.0649
     34 H         -3.842186   -1.839558   0.029088 H        1 UNL1     0.0683
     35 H         -3.198843   -2.977013   2.104312 H        1 UNL1     0.1085
     36 H         -4.835294   -3.01969   3.36741 H        1 UNL1     0.0691
     37 H         -2.79677   0.610681   4.505402 H        1 UNL1     0.0691
     38 H         -3.392174   -1.172426   9.00414 H        1 UNL1     0.0385
     39 H         -4.960145   -0.773757   9.732888 H        1 UNL1     0.0385
     40 H         -3.721914   1.239461   8.847966 H        1 UNL1     0.0789
     41 H         -4.808219   3.200646   7.401937 H        1 UNL1     0.0623
     42 H         -6.960662   4.389826   7.279373 H        1 UNL1     0.0654
     43 H         -9.01587   0.819266   8.49453 H        1 UNL1     0.0654
     44 H         -6.910733   -0.391273   8.589124 H        1 UNL1     0.0623
     45 H         -9.064082   4.34132   7.893595 H        1 UNL1     0.2921
     46 H         -5.603215   -3.854269   6.542929 H        1 UNL1     0.2922
     47 H         -0.298291   -0.513467   3.462002 H        1 UNL1     0.2126
     48 H         1.214396   -1.764114   -0.452362 H        1 UNL1     0.2101
     49 H         -3.009194   0.425252   0.53969 H        1 UNL1     0.2100
     50 H         -2.704446   -3.323249   -1.206413 H        1 UNL1     0.2102
@<TRIPOS>BOND
     1     1     2    1
     2     1     6    1
     3     2     3    1
     4     3     4    1
     5     3    29    1
     6     3    33    1
     7     4     5    1
     8     5     6    1
     9     5     7    1
    10     5    35    1
    11     7     8    1
    12     8     9   ar
    13     8    13   ar
    14     9    10   ar
    15     9    36    1
    16    10    11   ar
    17    10    26    1
    18    11    12   ar
    19    11    14    1
    20    12    13   ar
    21    12    17    1
    22    13    37    1
    23    14    15    1
    24    14    25    2
    25    15    16    1
    26    15    38    1
    27    15    39    1
    28    16    17    1
    29    16    18    1
    30    16    40    1
    31    18    19   ar
    32    18    23   ar
    33    19    20   ar
    34    19    41    1
    35    20    21   ar
    36    20    42    1
    37    21    22   ar
    38    21    24    1
    39    22    23   ar
    40    22    43    1
    41    23    44    1
    42    24    45    1
    43    26    46    1
    44    27    47    1
    45    28    48    1
    46    29    49    1
    47    30    50    1
    48     1    31    1
    49     1    27    1
    50     2    32    1
    51     2    28    1
    52     4    34    1
    53     4    30    1
