@<TRIPOS>MOLECULE
*****
 50 53 0 0 0
SMALL
GASTEIGER

@<TRIPOS>ATOM
     1 C         1.29828   -0.728334   1.598375 C.3        1 UNL1     0.1889
     2 C         0.61552   -0.882851   0.212769 C.3        1 UNL1     0.1342
     3 C         -0.248138   -2.144358   0.06058 C.3        1 UNL1     0.1174
     4 C         0.319082   -3.346991   0.818902 C.3        1 UNL1     0.1456
     5 C         0.745888   -2.991511   2.254811 C.3        1 UNL1     0.2326
     6 O         1.702191   -1.934281   2.229995 O.3        1 UNL1     -0.3076
     7 O         -0.36297   -2.730978   3.134514 O.3        1 UNL1     -0.4605
     8 C         -0.041686   -2.226695   4.381913 C.ar        1 UNL1     0.1310
     9 C         -0.223026   -2.895137   5.597479 C.ar        1 UNL1     0.0226
     10 C         0.150954   -2.305106   6.8107 C.ar        1 UNL1     0.1343
     11 C         0.737872   -1.040693   6.835735 C.ar        1 UNL1     0.1007
     12 C         0.886382   -0.346495   5.632066 C.ar        1 UNL1     0.1389
     13 C         0.507838   -0.938905   4.412564 C.ar        1 UNL1     0.0229
     14 C         1.228506   -0.405107   8.080509 C.2        1 UNL1     0.1740
     15 C         2.030009   0.849976   7.896372 C.3        1 UNL1     0.0520
     16 C         1.38158   1.678633   6.795997 C.3        1 UNL1     0.1322
     17 O         1.352173   0.945338   5.551616 O.3        1 UNL1     -0.4828
     18 C         0.041075   2.297503   7.199446 C.ar        1 UNL1     -0.0067
     19 C         -0.114321   3.69844   7.161494 C.ar        1 UNL1     -0.0516
     20 C         -1.311152   4.299706   7.568973 C.ar        1 UNL1     -0.0198
     21 C         -2.355073   3.513269   8.022374 C.ar        1 UNL1     0.1169
     22 C         -2.244134   2.12899   8.039788 C.ar        1 UNL1     -0.0198
     23 C         -1.053985   1.526402   7.614947 C.ar        1 UNL1     -0.0516
     24 O         -3.491745   4.136436   8.446685 O.3        1 UNL1     -0.5068
     25 O         1.073133   -0.894535   9.196217 O.2        1 UNL1     -0.2917
     26 O         -0.053668   -3.009568   7.961113 O.3        1 UNL1     -0.5058
     27 O         0.586019   0.11606   2.488583 O.3        1 UNL1     -0.3648
     28 O         1.640319   -0.940945   -0.796744 O.3        1 UNL1     -0.3841
     29 O         -1.609767   -1.870229   0.396661 O.3        1 UNL1     -0.3863
     30 O         1.466865   -3.857766   0.106586 O.3        1 UNL1     -0.3829
     31 H         2.242887   -0.201443   1.424642 H        1 UNL1     0.0937
     32 H         -0.0   0.0   0.0 H        1 UNL1     0.0671
     33 H         -0.259509   -2.416543   -1.004082 H        1 UNL1     0.0649
     34 H         -0.422774   -4.152606   0.851079 H        1 UNL1     0.0683
     35 H         1.271557   -3.888935   2.604354 H        1 UNL1     0.1085
     36 H         -0.622266   -3.90256   5.640214 H        1 UNL1     0.0691
     37 H         0.63281   -0.377085   3.489398 H        1 UNL1     0.0691
     38 H         3.048228   0.55526   7.620876 H        1 UNL1     0.0385
     39 H         2.075876   1.389501   8.848521 H        1 UNL1     0.0385
     40 H         2.046622   2.529969   6.597338 H        1 UNL1     0.0789
     41 H         0.693453   4.338269   6.818318 H        1 UNL1     0.0623
     42 H         -1.414483   5.38175   7.546281 H        1 UNL1     0.0654
     43 H         -3.060794   1.502828   8.378754 H        1 UNL1     0.0654
     44 H         -1.00591   0.441854   7.631932 H        1 UNL1     0.0623
     45 H         -4.210332   3.915313   7.832311 H        1 UNL1     0.2921
     46 H         -0.508067   -2.447327   8.608275 H        1 UNL1     0.2922
     47 H         1.04562   0.170701   3.338078 H        1 UNL1     0.2126
     48 H         2.194639   -0.145633   -0.67867 H        1 UNL1     0.2101
     49 H         -1.786764   -2.148146   1.309474 H        1 UNL1     0.2100
     50 H         2.217718   -3.898646   0.734487 H        1 UNL1     0.2102
@<TRIPOS>BOND
     1     1     2    1
     2     1     6    1
     3     2     3    1
     4     3     4    1
     5     3    29    1
     6     3    33    1
     7     4     5    1
     8     5     6    1
     9     5     7    1
    10     5    35    1
    11     7     8    1
    12     8     9   ar
    13     8    13   ar
    14     9    10   ar
    15     9    36    1
    16    10    11   ar
    17    10    26    1
    18    11    12   ar
    19    11    14    1
    20    12    13   ar
    21    12    17    1
    22    13    37    1
    23    14    15    1
    24    14    25    2
    25    15    16    1
    26    15    38    1
    27    15    39    1
    28    16    17    1
    29    16    18    1
    30    16    40    1
    31    18    19   ar
    32    18    23   ar
    33    19    20   ar
    34    19    41    1
    35    20    21   ar
    36    20    42    1
    37    21    22   ar
    38    21    24    1
    39    22    23   ar
    40    22    43    1
    41    23    44    1
    42    24    45    1
    43    26    46    1
    44    27    47    1
    45    28    48    1
    46    29    49    1
    47    30    50    1
    48     1    31    1
    49     1    27    1
    50     2    32    1
    51     2    28    1
    52     4    34    1
    53     4    30    1
