@<TRIPOS>MOLECULE
*****
 50 53 0 0 0
SMALL
GASTEIGER

@<TRIPOS>ATOM
     1 C         1.713969   -1.273687   0.45917 C.3        1 UNL1     0.1889
     2 C         0.240292   -0.833991   0.671029 C.3        1 UNL1     0.1342
     3 C         -0.108496   -0.433652   2.112744 C.3        1 UNL1     0.1174
     4 C         0.64435   -1.261531   3.157233 C.3        1 UNL1     0.1456
     5 C         2.14489   -1.391122   2.837937 C.3        1 UNL1     0.2326
     6 O         2.318777   -1.962869   1.543434 O.3        1 UNL1     -0.3076
     7 O         2.877238   -0.165354   3.018166 O.3        1 UNL1     -0.4605
     8 C         3.996933   -0.00546   2.221772 C.ar        1 UNL1     0.1310
     9 C         4.734988   1.175623   2.089042 C.ar        1 UNL1     0.0226
     10 C         5.867636   1.232884   1.26823 C.ar        1 UNL1     0.1343
     11 C         6.303933   0.102737   0.578118 C.ar        1 UNL1     0.1007
     12 C         5.551597   -1.071248   0.670495 C.ar        1 UNL1     0.1389
     13 C         4.411253   -1.127835   1.493807 C.ar        1 UNL1     0.0229
     14 C         7.540986   0.08424   -0.236443 C.2        1 UNL1     0.1740
     15 C         7.977693   -1.26626   -0.723256 C.3        1 UNL1     0.0520
     16 C         6.742912   -2.045127   -1.155273 C.3        1 UNL1     0.1322
     17 O         5.827968   -2.210304   -0.049531 O.3        1 UNL1     -0.4828
     18 C         6.098146   -1.515631   -2.438486 C.ar        1 UNL1     -0.0067
     19 C         4.885399   -0.800567   -2.360116 C.ar        1 UNL1     -0.0516
     20 C         4.244852   -0.343574   -3.518054 C.ar        1 UNL1     -0.0198
     21 C         4.801832   -0.601019   -4.757942 C.ar        1 UNL1     0.1169
     22 C         6.01222   -1.27349   -4.865569 C.ar        1 UNL1     -0.0198
     23 C         6.662366   -1.714517   -3.70675 C.ar        1 UNL1     -0.0516
     24 O         4.130166   -0.173398   -5.865374 O.3        1 UNL1     -0.5068
     25 O         8.226942   1.081078   -0.446835 O.2        1 UNL1     -0.2917
     26 O         6.5426   2.415449   1.181347 O.3        1 UNL1     -0.5058
     27 O         2.548074   -0.236976   -0.033055 O.3        1 UNL1     -0.3648
     28 O         -0.619338   -1.93141   0.311289 O.3        1 UNL1     -0.3841
     29 O         0.052404   0.97373   2.301206 O.3        1 UNL1     -0.3863
     30 O         0.067194   -2.583923   3.219353 O.3        1 UNL1     -0.3829
     31 H         1.705897   -2.017877   -0.344693 H        1 UNL1     0.0937
     32 H         0.0   0.0   0.0 H        1 UNL1     0.0671
     33 H         -1.179401   -0.627857   2.264954 H        1 UNL1     0.0649
     34 H         0.523142   -0.811976   4.149004 H        1 UNL1     0.0683
     35 H         2.507026   -2.12967   3.564079 H        1 UNL1     0.1085
     36 H         4.479994   2.072622   2.64266 H        1 UNL1     0.0691
     37 H         3.842169   -2.053436   1.54766 H        1 UNL1     0.0691
     38 H         8.490695   -1.766848   0.104855 H        1 UNL1     0.0385
     39 H         8.693967   -1.138311   -1.54201 H        1 UNL1     0.0385
     40 H         7.071255   -3.065604   -1.394725 H        1 UNL1     0.0789
     41 H         4.423182   -0.593581   -1.399303 H        1 UNL1     0.0623
     42 H         3.30401   0.19635   -3.445187 H        1 UNL1     0.0654
     43 H         6.464861   -1.467315   -5.83069 H        1 UNL1     0.0654
     44 H         7.611711   -2.227374   -3.827443 H        1 UNL1     0.0623
     45 H         4.174222   -0.871045   -6.539217 H        1 UNL1     0.2921
     46 H         7.162245   2.380246   0.43555 H        1 UNL1     0.2922
     47 H         3.469327   -0.531243   -0.056738 H        1 UNL1     0.2126
     48 H         -1.243396   -2.052517   1.052651 H        1 UNL1     0.2101
     49 H         0.484809   1.145335   3.152893 H        1 UNL1     0.2100
     50 H         0.362823   -3.079418   2.427646 H        1 UNL1     0.2102
@<TRIPOS>BOND
     1     1     2    1
     2     1     6    1
     3     2     3    1
     4     3     4    1
     5     3    29    1
     6     3    33    1
     7     4     5    1
     8     5     6    1
     9     5     7    1
    10     5    35    1
    11     7     8    1
    12     8     9   ar
    13     8    13   ar
    14     9    10   ar
    15     9    36    1
    16    10    11   ar
    17    10    26    1
    18    11    12   ar
    19    11    14    1
    20    12    13   ar
    21    12    17    1
    22    13    37    1
    23    14    15    1
    24    14    25    2
    25    15    16    1
    26    15    38    1
    27    15    39    1
    28    16    17    1
    29    16    18    1
    30    16    40    1
    31    18    19   ar
    32    18    23   ar
    33    19    20   ar
    34    19    41    1
    35    20    21   ar
    36    20    42    1
    37    21    22   ar
    38    21    24    1
    39    22    23   ar
    40    22    43    1
    41    23    44    1
    42    24    45    1
    43    26    46    1
    44    27    47    1
    45    28    48    1
    46    29    49    1
    47    30    50    1
    48     1    31    1
    49     1    27    1
    50     2    32    1
    51     2    28    1
    52     4    34    1
    53     4    30    1
