@<TRIPOS>MOLECULE
*****
 50 53 0 0 0
SMALL
GASTEIGER

@<TRIPOS>ATOM
     1 C         1.114153   -1.479259   1.158128 C.3        1 UNL1     0.1889
     2 C         -0.21358   -0.821637   0.69488 C.3        1 UNL1     0.1342
     3 C         -1.100775   -0.296658   1.834067 C.3        1 UNL1     0.1174
     4 C         -1.026897   -1.16526   3.092315 C.3        1 UNL1     0.1456
     5 C         0.419712   -1.52623   3.476223 C.3        1 UNL1     0.2326
     6 O         1.060895   -2.187379   2.387813 O.3        1 UNL1     -0.3076
     7 O         1.173585   -0.410211   3.983666 O.3        1 UNL1     -0.4605
     8 C         1.160214   -0.24379   5.356857 C.ar        1 UNL1     0.1310
     9 C         2.290147   -0.221961   6.181524 C.ar        1 UNL1     0.0226
     10 C         2.174015   -0.0298   7.563366 C.ar        1 UNL1     0.1343
     11 C         0.925673   0.16917   8.151496 C.ar        1 UNL1     0.1007
     12 C         -0.213232   0.108531   7.34403 C.ar        1 UNL1     0.1389
     13 C         -0.096397   -0.087337   5.954996 C.ar        1 UNL1     0.0229
     14 C         0.752001   0.460068   9.593498 C.2        1 UNL1     0.1740
     15 C         -0.630442   0.866659   10.01193 C.3        1 UNL1     0.0520
     16 C         -1.634683   0.004347   9.259682 C.3        1 UNL1     0.1322
     17 O         -1.4969   0.183301   7.832776 O.3        1 UNL1     -0.4828
     18 C         -1.656899   -1.456285   9.716609 C.ar        1 UNL1     -0.0067
     19 C         -0.671911   -1.916013   10.614753 C.ar        1 UNL1     -0.0516
     20 C         -0.63508   -3.256832   11.015763 C.ar        1 UNL1     -0.0198
     21 C         -1.571053   -4.147414   10.521146 C.ar        1 UNL1     0.1169
     22 C         -2.573529   -3.717589   9.661418 C.ar        1 UNL1     -0.0198
     23 C         -2.621728   -2.372908   9.27468 C.ar        1 UNL1     -0.0516
     24 O         -1.480841   -5.453271   10.904551 O.3        1 UNL1     -0.5068
     25 O         1.677824   0.455052   10.400536 O.2        1 UNL1     -0.2917
     26 O         3.31481   -0.02011   8.311749 O.3        1 UNL1     -0.5058
     27 O         2.2277   -0.60166   1.106928 O.3        1 UNL1     -0.3648
     28 O         -0.980422   -1.802446   -0.028081 O.3        1 UNL1     -0.3841
     29 O         -0.827215   1.081281   2.095946 O.3        1 UNL1     -0.3863
     30 O         -1.766231   -2.385691   2.869549 O.3        1 UNL1     -0.3829
     31 H         1.350353   -2.257686   0.424412 H        1 UNL1     0.0937
     32 H         0.0   0.0   0.0 H        1 UNL1     0.0671
     33 H         -2.143423   -0.32649   1.488069 H        1 UNL1     0.0649
     34 H         -1.505767   -0.649072   3.93174 H        1 UNL1     0.0683
     35 H         0.303799   -2.268012   4.276349 H        1 UNL1     0.1085
     36 H         3.292473   -0.314808   5.777985 H        1 UNL1     0.0691
     37 H         -0.998477   -0.131688   5.348549 H        1 UNL1     0.0691
     38 H         -0.754012   1.92583   9.762105 H        1 UNL1     0.0385
     39 H         -0.723188   0.758306   11.097948 H        1 UNL1     0.0385
     40 H         -2.634596   0.396188   9.490236 H        1 UNL1     0.0789
     41 H         0.079506   -1.238728   11.010111 H        1 UNL1     0.0623
     42 H         0.136629   -3.601694   11.699538 H        1 UNL1     0.0654
     43 H         -3.320536   -4.403396   9.279895 H        1 UNL1     0.0654
     44 H         -3.424966   -2.069642   8.610088 H        1 UNL1     0.0623
     45 H         -0.978831   -5.937288   10.228954 H        1 UNL1     0.2921
     46 H         3.318686   0.762311   8.885522 H        1 UNL1     0.2922
     47 H         2.156136   -0.014244   0.341631 H        1 UNL1     0.2126
     48 H         -0.346903   -2.474741   -0.344948 H        1 UNL1     0.2101
     49 H         -1.169504   1.629124   1.371722 H        1 UNL1     0.2100
     50 H         -1.930676   -2.467208   1.907247 H        1 UNL1     0.2102
@<TRIPOS>BOND
     1     1     2    1
     2     1     6    1
     3     2     3    1
     4     3     4    1
     5     3    29    1
     6     3    33    1
     7     4     5    1
     8     5     6    1
     9     5     7    1
    10     5    35    1
    11     7     8    1
    12     8     9   ar
    13     8    13   ar
    14     9    10   ar
    15     9    36    1
    16    10    11   ar
    17    10    26    1
    18    11    12   ar
    19    11    14    1
    20    12    13   ar
    21    12    17    1
    22    13    37    1
    23    14    15    1
    24    14    25    2
    25    15    16    1
    26    15    38    1
    27    15    39    1
    28    16    17    1
    29    16    18    1
    30    16    40    1
    31    18    19   ar
    32    18    23   ar
    33    19    20   ar
    34    19    41    1
    35    20    21   ar
    36    20    42    1
    37    21    22   ar
    38    21    24    1
    39    22    23   ar
    40    22    43    1
    41    23    44    1
    42    24    45    1
    43    26    46    1
    44    27    47    1
    45    28    48    1
    46    29    49    1
    47    30    50    1
    48     1    31    1
    49     1    27    1
    50     2    32    1
    51     2    28    1
    52     4    34    1
    53     4    30    1
