@<TRIPOS>MOLECULE
*****
 50 53 0 0 0
SMALL
GASTEIGER

@<TRIPOS>ATOM
     1 C         0.066778   -1.662149   1.415488 C.3        1 UNL1     0.1889
     2 C         -0.638995   -0.434917   0.778521 C.3        1 UNL1     0.1342
     3 C         -1.034701   0.665731   1.774742 C.3        1 UNL1     0.1174
     4 C         -1.457053   0.109475   3.136842 C.3        1 UNL1     0.1456
     5 C         -0.483509   -0.959759   3.665343 C.3        1 UNL1     0.2326
     6 O         -0.366161   -2.020264   2.719601 O.3        1 UNL1     -0.3076
     7 O         0.787801   -0.424593   4.076059 O.3        1 UNL1     -0.4605
     8 C         1.807572   -1.344366   4.242236 C.ar        1 UNL1     0.1310
     9 C         3.119292   -1.040164   4.621907 C.ar        1 UNL1     0.0226
     10 C         4.078794   -2.04717   4.780645 C.ar        1 UNL1     0.1343
     11 C         3.743302   -3.38642   4.586492 C.ar        1 UNL1     0.1007
     12 C         2.447405   -3.699008   4.167299 C.ar        1 UNL1     0.1389
     13 C         1.483521   -2.686052   4.005194 C.ar        1 UNL1     0.0229
     14 C         4.694634   -4.497187   4.82169 C.2        1 UNL1     0.1740
     15 C         4.105079   -5.87645   4.781605 C.3        1 UNL1     0.0520
     16 C         3.096174   -5.936256   3.642969 C.3        1 UNL1     0.1322
     17 O         2.039177   -4.972038   3.843243 O.3        1 UNL1     -0.4828
     18 C         3.733887   -5.898727   2.252056 C.ar        1 UNL1     -0.0067
     19 C         2.957215   -6.236656   1.124759 C.ar        1 UNL1     -0.0516
     20 C         3.521785   -6.258453   -0.156158 C.ar        1 UNL1     -0.0198
     21 C         4.860662   -5.952146   -0.321724 C.ar        1 UNL1     0.1169
     22 C         5.643061   -5.58298   0.764741 C.ar        1 UNL1     -0.0198
     23 C         5.074195   -5.54318   2.043359 C.ar        1 UNL1     -0.0516
     24 O         5.384784   -6.020757   -1.579098 O.3        1 UNL1     -0.5068
     25 O         5.875625   -4.325832   5.112179 O.2        1 UNL1     -0.2917
     26 O         5.340531   -1.683738   5.151484 O.3        1 UNL1     -0.5058
     27 O         1.481881   -1.607905   1.329888 O.3        1 UNL1     -0.3648
     28 O         -1.84611   -0.885519   0.136232 O.3        1 UNL1     -0.3841
     29 O         -0.006143   1.652741   1.874794 O.3        1 UNL1     -0.3863
     30 O         -2.772124   -0.476308   3.022229 O.3        1 UNL1     -0.3829
     31 H         -0.207053   -2.531076   0.807161 H        1 UNL1     0.0937
     32 H         0.0   0.0   0.0 H        1 UNL1     0.0671
     33 H         -1.906287   1.193333   1.362803 H        1 UNL1     0.0649
     34 H         -1.531186   0.923396   3.866526 H        1 UNL1     0.0683
     35 H         -0.994732   -1.371553   4.544523 H        1 UNL1     0.1085
     36 H         3.428133   -0.024142   4.841994 H        1 UNL1     0.0691
     37 H         0.481947   -2.955503   3.676958 H        1 UNL1     0.0691
     38 H         3.621789   -6.058237   5.747478 H        1 UNL1     0.0385
     39 H         4.911162   -6.607941   4.659413 H        1 UNL1     0.0385
     40 H         2.594081   -6.91115   3.706235 H        1 UNL1     0.0789
     41 H         1.90624   -6.489926   1.229427 H        1 UNL1     0.0623
     42 H         2.915391   -6.532212   -1.016014 H        1 UNL1     0.0654
     43 H         6.688856   -5.326598   0.644359 H        1 UNL1     0.0654
     44 H         5.712168   -5.240186   2.867998 H        1 UNL1     0.0623
     45 H         5.220526   -6.910362   -1.931715 H        1 UNL1     0.2921
     46 H         5.372059   -1.56009   6.113321 H        1 UNL1     0.2922
     47 H         1.754911   -1.401663   0.425024 H        1 UNL1     0.2126
     48 H         -1.897696   -0.419689   -0.720549 H        1 UNL1     0.2101
     49 H         -0.350747   2.51747   1.600411 H        1 UNL1     0.2100
     50 H         -3.114855   -0.627334   3.927458 H        1 UNL1     0.2102
@<TRIPOS>BOND
     1     1     2    1
     2     1     6    1
     3     2     3    1
     4     3     4    1
     5     3    29    1
     6     3    33    1
     7     4     5    1
     8     5     6    1
     9     5     7    1
    10     5    35    1
    11     7     8    1
    12     8     9   ar
    13     8    13   ar
    14     9    10   ar
    15     9    36    1
    16    10    11   ar
    17    10    26    1
    18    11    12   ar
    19    11    14    1
    20    12    13   ar
    21    12    17    1
    22    13    37    1
    23    14    15    1
    24    14    25    2
    25    15    16    1
    26    15    38    1
    27    15    39    1
    28    16    17    1
    29    16    18    1
    30    16    40    1
    31    18    19   ar
    32    18    23   ar
    33    19    20   ar
    34    19    41    1
    35    20    21   ar
    36    20    42    1
    37    21    22   ar
    38    21    24    1
    39    22    23   ar
    40    22    43    1
    41    23    44    1
    42    24    45    1
    43    26    46    1
    44    27    47    1
    45    28    48    1
    46    29    49    1
    47    30    50    1
    48     1    31    1
    49     1    27    1
    50     2    32    1
    51     2    28    1
    52     4    34    1
    53     4    30    1
