@<TRIPOS>MOLECULE
*****
 50 53 0 0 0
SMALL
GASTEIGER

@<TRIPOS>ATOM
     1 C         1.909823   1.041218   0.198105 C.3        1 UNL1     0.1889
     2 C         0.860798   0.252895   -0.631373 C.3        1 UNL1     0.1342
     3 C         1.394644   -1.029466   -1.287897 C.3        1 UNL1     0.1174
     4 C         2.851105   -0.90206   -1.741336 C.3        1 UNL1     0.1456
     5 C         3.751745   -0.271284   -0.663685 C.3        1 UNL1     0.2326
     6 O         3.242193   1.007369   -0.291834 O.3        1 UNL1     -0.3076
     7 O         3.98903   -1.135243   0.462633 O.3        1 UNL1     -0.4605
     8 C         3.420439   -2.394267   0.391284 C.ar        1 UNL1     0.1310
     9 C         2.756702   -2.921781   -0.721587 C.ar        1 UNL1     0.0226
     10 C         2.228178   -4.217996   -0.701782 C.ar        1 UNL1     0.1343
     11 C         2.371575   -5.027583   0.424205 C.ar        1 UNL1     0.1007
     12 C         2.99641   -4.497304   1.556092 C.ar        1 UNL1     0.1389
     13 C         3.525426   -3.193002   1.536849 C.ar        1 UNL1     0.0229
     14 C         1.906565   -6.433225   0.469905 C.2        1 UNL1     0.1740
     15 C         2.33943   -7.22158   1.671019 C.3        1 UNL1     0.0520
     16 C         2.24317   -6.323798   2.896857 C.3        1 UNL1     0.1322
     17 O         3.096553   -5.166967   2.753502 O.3        1 UNL1     -0.4828
     18 C         0.805967   -6.003963   3.315038 C.ar        1 UNL1     -0.0067
     19 C         0.224604   -6.7075   4.389871 C.ar        1 UNL1     -0.0516
     20 C         -1.102945   -6.473132   4.76756 C.ar        1 UNL1     -0.0198
     21 C         -1.860198   -5.545182   4.075242 C.ar        1 UNL1     0.1169
     22 C         -1.305504   -4.812582   3.033873 C.ar        1 UNL1     -0.0198
     23 C         0.02764   -5.033522   2.667855 C.ar        1 UNL1     -0.0516
     24 O         -3.160819   -5.371026   4.447337 O.3        1 UNL1     -0.5068
     25 O         1.275993   -6.966661   -0.439111 O.2        1 UNL1     -0.2917
     26 O         1.591347   -4.67246   -1.819589 O.3        1 UNL1     -0.5058
     27 O         1.855805   0.763582   1.588352 O.3        1 UNL1     -0.3648
     28 O         0.379163   1.105809   -1.68649 O.3        1 UNL1     -0.3841
     29 O         1.174976   -2.160914   -0.443087 O.3        1 UNL1     -0.3863
     30 O         2.907314   -0.084006   -2.930166 O.3        1 UNL1     -0.3829
     31 H         1.636425   2.099417   0.123632 H        1 UNL1     0.0937
     32 H         0.0   -0.0   0.0 H        1 UNL1     0.0671
     33 H         0.796285   -1.218435   -2.190103 H        1 UNL1     0.0649
     34 H         3.246282   -1.887599   -2.011425 H        1 UNL1     0.0683
     35 H         4.702721   -0.097087   -1.182509 H        1 UNL1     0.1085
     36 H         2.66136   -2.363271   -1.646302 H        1 UNL1     0.0691
     37 H         4.006272   -2.803133   2.431434 H        1 UNL1     0.0691
     38 H         3.37116   -7.546643   1.499575 H        1 UNL1     0.0385
     39 H         1.710175   -8.113642   1.760691 H        1 UNL1     0.0385
     40 H         2.67422   -6.880131   3.74019 H        1 UNL1     0.0789
     41 H         0.795201   -7.44758   4.943361 H        1 UNL1     0.0623
     42 H         -1.543511   -7.030591   5.590453 H        1 UNL1     0.0654
     43 H         -1.884977   -4.072716   2.494688 H        1 UNL1     0.0654
     44 H         0.431677   -4.435758   1.856512 H        1 UNL1     0.0623
     45 H         -3.67621   -6.127801   4.124258 H        1 UNL1     0.2921
     46 H         2.248656   -4.906252   -2.493902 H        1 UNL1     0.2922
     47 H         1.030887   0.307985   1.806989 H        1 UNL1     0.2126
     48 H         1.120295   1.223209   -2.311529 H        1 UNL1     0.2101
     49 H         1.296933   -2.979638   -0.949657 H        1 UNL1     0.2100
     50 H         3.836468   0.19903   -3.057744 H        1 UNL1     0.2102
@<TRIPOS>BOND
     1     1     2    1
     2     1     6    1
     3     2     3    1
     4     3     4    1
     5     3    29    1
     6     3    33    1
     7     4     5    1
     8     5     6    1
     9     5     7    1
    10     5    35    1
    11     7     8    1
    12     8     9   ar
    13     8    13   ar
    14     9    10   ar
    15     9    36    1
    16    10    11   ar
    17    10    26    1
    18    11    12   ar
    19    11    14    1
    20    12    13   ar
    21    12    17    1
    22    13    37    1
    23    14    15    1
    24    14    25    2
    25    15    16    1
    26    15    38    1
    27    15    39    1
    28    16    17    1
    29    16    18    1
    30    16    40    1
    31    18    19   ar
    32    18    23   ar
    33    19    20   ar
    34    19    41    1
    35    20    21   ar
    36    20    42    1
    37    21    22   ar
    38    21    24    1
    39    22    23   ar
    40    22    43    1
    41    23    44    1
    42    24    45    1
    43    26    46    1
    44    27    47    1
    45    28    48    1
    46    29    49    1
    47    30    50    1
    48     1    31    1
    49     1    27    1
    50     2    32    1
    51     2    28    1
    52     4    34    1
    53     4    30    1
