@<TRIPOS>MOLECULE
*****
 50 53 0 0 0
SMALL
GASTEIGER

@<TRIPOS>ATOM
     1 C         -0.248347   -1.392428   1.664414 C.3        1 UNL1     0.1889
     2 C         -0.442099   -0.988113   0.178167 C.3        1 UNL1     0.1342
     3 C         -1.90274   -0.976836   -0.298139 C.3        1 UNL1     0.1174
     4 C         -2.749101   -2.071172   0.357008 C.3        1 UNL1     0.1456
     5 C         -2.537345   -2.148754   1.879999 C.3        1 UNL1     0.2326
     6 O         -1.157162   -2.359971   2.168706 O.3        1 UNL1     -0.3076
     7 O         -3.100742   -1.033742   2.594599 O.3        1 UNL1     -0.4605
     8 C         -3.557503   -1.301147   3.872641 C.ar        1 UNL1     0.1310
     9 C         -4.344823   -2.398114   4.238825 C.ar        1 UNL1     0.0226
     10 C         -4.743893   -2.591455   5.566705 C.ar        1 UNL1     0.1343
     11 C         -4.345019   -1.704491   6.565722 C.ar        1 UNL1     0.1007
     12 C         -3.593035   -0.583072   6.205547 C.ar        1 UNL1     0.1389
     13 C         -3.194118   -0.387469   4.869869 C.ar        1 UNL1     0.0229
     14 C         -4.667582   -1.90604   7.997324 C.2        1 UNL1     0.1740
     15 C         -3.973938   -0.982733   8.955401 C.3        1 UNL1     0.0520
     16 C         -3.947952   0.412479   8.346577 C.3        1 UNL1     0.1322
     17 O         -3.237522   0.409896   7.088661 O.3        1 UNL1     -0.4828
     18 C         -5.319786   1.089626   8.298957 C.ar        1 UNL1     -0.0067
     19 C         -5.754262   1.690462   7.099607 C.ar        1 UNL1     -0.0516
     20 C         -6.982535   2.359149   7.035049 C.ar        1 UNL1     -0.0198
     21 C         -7.78033   2.440139   8.162342 C.ar        1 UNL1     0.1169
     22 C         -7.395043   1.829744   9.348855 C.ar        1 UNL1     -0.0198
     23 C         -6.17528   1.145157   9.408659 C.ar        1 UNL1     -0.0516
     24 O         -8.95232   3.13197   8.071735 O.3        1 UNL1     -0.5068
     25 O         -5.38829   -2.812296   8.406916 O.2        1 UNL1     -0.2917
     26 O         -5.51218   -3.680805   5.857627 O.3        1 UNL1     -0.5058
     27 O         -0.124591   -0.283393   2.540492 O.3        1 UNL1     -0.3648
     28 O         0.270297   -1.928529   -0.646948 O.3        1 UNL1     -0.3841
     29 O         -2.473285   0.325319   -0.153216 O.3        1 UNL1     -0.3863
     30 O         -2.405893   -3.347613   -0.224884 O.3        1 UNL1     -0.3829
     31 H         0.722629   -1.8957   1.727673 H        1 UNL1     0.0937
     32 H         0.0   0.0   0.0 H        1 UNL1     0.0671
     33 H         -1.90469   -1.177635   -1.3786 H        1 UNL1     0.0649
     34 H         -3.810625   -1.898553   0.147795 H        1 UNL1     0.0683
     35 H         -3.068328   -3.062592   2.17468 H        1 UNL1     0.1085
     36 H         -4.640786   -3.153249   3.518895 H        1 UNL1     0.0691
     37 H         -2.609915   0.4942   4.615196 H        1 UNL1     0.0691
     38 H         -2.95937   -1.365738   9.10865 H        1 UNL1     0.0385
     39 H         -4.496899   -1.004946   9.917584 H        1 UNL1     0.0385
     40 H         -3.335802   1.042195   9.006313 H        1 UNL1     0.0789
     41 H         -5.142152   1.648709   6.203377 H        1 UNL1     0.0623
     42 H         -7.30103   2.828647   6.107609 H        1 UNL1     0.0654
     43 H         -8.019054   1.874143   10.233473 H        1 UNL1     0.0654
     44 H         -5.910702   0.671029   10.348897 H        1 UNL1     0.0623
     45 H         -8.748331   4.05112   7.834526 H        1 UNL1     0.2921
     46 H         -5.073423   -4.21326   6.539826 H        1 UNL1     0.2922
     47 H         0.600014   0.290117   2.25432 H        1 UNL1     0.2126
     48 H         1.212509   -1.86018   -0.399364 H        1 UNL1     0.2101
     49 H         -2.067133   0.936159   -0.788597 H        1 UNL1     0.2100
     50 H         -2.675995   -3.332143   -1.166435 H        1 UNL1     0.2102
@<TRIPOS>BOND
     1     1     2    1
     2     1     6    1
     3     2     3    1
     4     3     4    1
     5     3    29    1
     6     3    33    1
     7     4     5    1
     8     5     6    1
     9     5     7    1
    10     5    35    1
    11     7     8    1
    12     8     9   ar
    13     8    13   ar
    14     9    10   ar
    15     9    36    1
    16    10    11   ar
    17    10    26    1
    18    11    12   ar
    19    11    14    1
    20    12    13   ar
    21    12    17    1
    22    13    37    1
    23    14    15    1
    24    14    25    2
    25    15    16    1
    26    15    38    1
    27    15    39    1
    28    16    17    1
    29    16    18    1
    30    16    40    1
    31    18    19   ar
    32    18    23   ar
    33    19    20   ar
    34    19    41    1
    35    20    21   ar
    36    20    42    1
    37    21    22   ar
    38    21    24    1
    39    22    23   ar
    40    22    43    1
    41    23    44    1
    42    24    45    1
    43    26    46    1
    44    27    47    1
    45    28    48    1
    46    29    49    1
    47    30    50    1
    48     1    31    1
    49     1    27    1
    50     2    32    1
    51     2    28    1
    52     4    34    1
    53     4    30    1
