@<TRIPOS>MOLECULE
*****
 50 53 0 0 0
SMALL
GASTEIGER

@<TRIPOS>ATOM
     1 C         -0.329996   -1.327148   1.703111 C.3        1 UNL1     0.1889
     2 C         -0.4615   -0.975635   0.196762 C.3        1 UNL1     0.1342
     3 C         -1.902601   -0.964827   -0.335757 C.3        1 UNL1     0.1174
     4 C         -2.787651   -2.0243   0.325546 C.3        1 UNL1     0.1456
     5 C         -2.635278   -2.048179   1.8574 C.3        1 UNL1     0.2326
     6 O         -1.270022   -2.264749   2.206746 O.3        1 UNL1     -0.3076
     7 O         -3.210903   -0.901075   2.508652 O.3        1 UNL1     -0.4605
     8 C         -3.719629   -1.115841   3.776959 C.ar        1 UNL1     0.1310
     9 C         -4.531836   -2.191146   4.152909 C.ar        1 UNL1     0.0226
     10 C         -4.984089   -2.330525   5.470461 C.ar        1 UNL1     0.1343
     11 C         -4.615138   -1.40993   6.45037 C.ar        1 UNL1     0.1007
     12 C         -3.83822   -0.309652   6.078119 C.ar        1 UNL1     0.1389
     13 C         -3.385794   -0.168306   4.75269 C.ar        1 UNL1     0.0229
     14 C         -4.995053   -1.554261   7.874795 C.2        1 UNL1     0.1740
     15 C         -4.329606   -0.601509   8.824001 C.3        1 UNL1     0.0520
     16 C         -4.265631   0.769363   8.164778 C.3        1 UNL1     0.1322
     17 O         -3.507005   0.712862   6.936623 O.3        1 UNL1     -0.4828
     18 C         -5.627527   1.456331   8.038129 C.ar        1 UNL1     -0.0067
     19 C         -6.00898   2.015037   6.800973 C.ar        1 UNL1     -0.0516
     20 C         -7.22686   2.691637   6.663343 C.ar        1 UNL1     -0.0198
     21 C         -8.066857   2.822413   7.754732 C.ar        1 UNL1     0.1169
     22 C         -7.734155   2.254103   8.977505 C.ar        1 UNL1     -0.0198
     23 C         -6.524758   1.56151   9.110653 C.ar        1 UNL1     -0.0516
     24 O         -9.227252   3.520653   7.592423 O.3        1 UNL1     -0.5068
     25 O         -5.740417   -2.437945   8.289547 O.2        1 UNL1     -0.2917
     26 O         -5.77428   -3.401238   5.77172 O.3        1 UNL1     -0.5058
     27 O         -0.225276   -0.188107   2.5424 O.3        1 UNL1     -0.3648
     28 O         0.269514   -1.95409   -0.56544 O.3        1 UNL1     -0.3841
     29 O         -2.461147   0.348371   -0.26046 O.3        1 UNL1     -0.3863
     30 O         -2.439223   -3.325244   -0.195828 O.3        1 UNL1     -0.3829
     31 H         0.631173   -1.839074   1.822129 H        1 UNL1     0.0937
     32 H         0.0   0.0   0.0 H        1 UNL1     0.0671
     33 H         -1.865898   -1.205268   -1.407466 H        1 UNL1     0.0649
     34 H         -3.838051   -1.847098   0.069307 H        1 UNL1     0.0683
     35 H         -3.189067   -2.944262   2.164373 H        1 UNL1     0.1085
     36 H         -4.807425   -2.970353   3.450764 H        1 UNL1     0.0691
     37 H         -2.783087   0.697885   4.488206 H        1 UNL1     0.0691
     38 H         -3.325752   -0.987397   9.031108 H        1 UNL1     0.0385
     39 H         -4.889699   -0.582643   9.765127 H        1 UNL1     0.0385
     40 H         -3.67307   1.418169   8.823899 H        1 UNL1     0.0789
     41 H         -5.363066   1.933882   5.93157 H        1 UNL1     0.0623
     42 H         -7.504317   3.128398   5.707169 H        1 UNL1     0.0654
     43 H         -8.391482   2.337566   9.834748 H        1 UNL1     0.0654
     44 H         -6.301718   1.121085   10.077671 H        1 UNL1     0.0623
     45 H         -9.971575   2.927169   7.78341 H        1 UNL1     0.2921
     46 H         -5.367703   -3.911484   6.489882 H        1 UNL1     0.2922
     47 H         0.51719   0.36595   2.263789 H        1 UNL1     0.2126
     48 H         1.202333   -1.887938   -0.284004 H        1 UNL1     0.2101
     49 H         -2.023041   0.930588   -0.90146 H        1 UNL1     0.2100
     50 H         -2.672925   -3.341322   -1.147057 H        1 UNL1     0.2102
@<TRIPOS>BOND
     1     1     2    1
     2     1     6    1
     3     2     3    1
     4     3     4    1
     5     3    29    1
     6     3    33    1
     7     4     5    1
     8     5     6    1
     9     5     7    1
    10     5    35    1
    11     7     8    1
    12     8     9   ar
    13     8    13   ar
    14     9    10   ar
    15     9    36    1
    16    10    11   ar
    17    10    26    1
    18    11    12   ar
    19    11    14    1
    20    12    13   ar
    21    12    17    1
    22    13    37    1
    23    14    15    1
    24    14    25    2
    25    15    16    1
    26    15    38    1
    27    15    39    1
    28    16    17    1
    29    16    18    1
    30    16    40    1
    31    18    19   ar
    32    18    23   ar
    33    19    20   ar
    34    19    41    1
    35    20    21   ar
    36    20    42    1
    37    21    22   ar
    38    21    24    1
    39    22    23   ar
    40    22    43    1
    41    23    44    1
    42    24    45    1
    43    26    46    1
    44    27    47    1
    45    28    48    1
    46    29    49    1
    47    30    50    1
    48     1    31    1
    49     1    27    1
    50     2    32    1
    51     2    28    1
    52     4    34    1
    53     4    30    1
