@<TRIPOS>MOLECULE
*****
 50 53 0 0 0
SMALL
GASTEIGER

@<TRIPOS>ATOM
     1 C         -0.826757   -2.00967   0.220237 C.3        1 UNL1     0.1889
     2 C         -0.225406   -0.863947   -0.637455 C.3        1 UNL1     0.1342
     3 C         -1.110185   -0.406356   -1.807174 C.3        1 UNL1     0.1174
     4 C         -1.902304   -1.554904   -2.436859 C.3        1 UNL1     0.1456
     5 C         -2.584832   -2.447727   -1.384535 C.3        1 UNL1     0.2326
     6 O         -1.611174   -2.964042   -0.479948 O.3        1 UNL1     -0.3076
     7 O         -3.690892   -1.808926   -0.721297 O.3        1 UNL1     -0.4605
     8 C         -3.505122   -1.510576   0.616613 C.ar        1 UNL1     0.1310
     9 C         -2.42831   -1.938832   1.400432 C.ar        1 UNL1     0.0226
     10 C         -2.320233   -1.568371   2.746159 C.ar        1 UNL1     0.1343
     11 C         -3.274912   -0.740239   3.33491 C.ar        1 UNL1     0.1007
     12 C         -4.376222   -0.339823   2.573617 C.ar        1 UNL1     0.1389
     13 C         -4.486037   -0.714624   1.221251 C.ar        1 UNL1     0.0229
     14 C         -3.166178   -0.249786   4.72839 C.2        1 UNL1     0.1740
     15 C         -4.156879   0.805264   5.124534 C.3        1 UNL1     0.0520
     16 C         -5.508746   0.446987   4.522827 C.3        1 UNL1     0.1322
     17 O         -5.428605   0.385871   3.081677 O.3        1 UNL1     -0.4828
     18 C         -6.169668   -0.770544   5.173614 C.ar        1 UNL1     -0.0067
     19 C         -7.371723   -0.604755   5.8918 C.ar        1 UNL1     -0.0516
     20 C         -7.9772   -1.688568   6.538877 C.ar        1 UNL1     -0.0198
     21 C         -7.387979   -2.938912   6.481559 C.ar        1 UNL1     0.1169
     22 C         -6.22211   -3.140529   5.754278 C.ar        1 UNL1     -0.0198
     23 C         -5.626286   -2.060671   5.091741 C.ar        1 UNL1     -0.0516
     24 O         -7.986294   -3.962687   7.155581 O.3        1 UNL1     -0.5068
     25 O         -2.283092   -0.606687   5.503803 O.2        1 UNL1     -0.2917
     26 O         -1.246183   -2.020525   3.455777 O.3        1 UNL1     -0.5058
     27 O         -1.480769   -1.553871   1.393823 O.3        1 UNL1     -0.3648
     28 O         1.021474   -1.318257   -1.195665 O.3        1 UNL1     -0.3841
     29 O         -1.940077   0.689527   -1.416721 O.3        1 UNL1     -0.3863
     30 O         -1.008925   -2.369106   -3.227199 O.3        1 UNL1     -0.3829
     31 H         0.018713   -2.597652   0.593784 H        1 UNL1     0.0937
     32 H         0.0   0.0   0.0 H        1 UNL1     0.0671
     33 H         -0.450571   -0.008115   -2.590777 H        1 UNL1     0.0649
     34 H         -2.660792   -1.155984   -3.119471 H        1 UNL1     0.0683
     35 H         -2.963721   -3.298297   -1.964925 H        1 UNL1     0.1085
     36 H         -1.624566   -2.53794   0.986685 H        1 UNL1     0.0691
     37 H         -5.353731   -0.390721   0.650561 H        1 UNL1     0.0691
     38 H         -3.793448   1.763028   4.737064 H        1 UNL1     0.0385
     39 H         -4.194216   0.870381   6.217303 H        1 UNL1     0.0385
     40 H         -6.186015   1.287859   4.724722 H        1 UNL1     0.0789
     41 H         -7.849195   0.368435   5.959425 H        1 UNL1     0.0623
     42 H         -8.897698   -1.545511   7.099439 H        1 UNL1     0.0654
     43 H         -5.760339   -4.118581   5.6903 H        1 UNL1     0.0654
     44 H         -4.721696   -2.256542   4.524116 H        1 UNL1     0.0623
     45 H         -8.871746   -3.673463   7.429517 H        1 UNL1     0.2921
     46 H         -0.429738   -1.672085   3.064089 H        1 UNL1     0.2922
     47 H         -1.253282   -2.119422   2.144996 H        1 UNL1     0.2126
     48 H         0.803047   -1.784307   -2.025617 H        1 UNL1     0.2101
     49 H         -1.425152   1.512087   -1.423122 H        1 UNL1     0.2100
     50 H         -1.239562   -3.308359   -3.071238 H        1 UNL1     0.2102
@<TRIPOS>BOND
     1     1     2    1
     2     1     6    1
     3     2     3    1
     4     3     4    1
     5     3    29    1
     6     3    33    1
     7     4     5    1
     8     5     6    1
     9     5     7    1
    10     5    35    1
    11     7     8    1
    12     8     9   ar
    13     8    13   ar
    14     9    10   ar
    15     9    36    1
    16    10    11   ar
    17    10    26    1
    18    11    12   ar
    19    11    14    1
    20    12    13   ar
    21    12    17    1
    22    13    37    1
    23    14    15    1
    24    14    25    2
    25    15    16    1
    26    15    38    1
    27    15    39    1
    28    16    17    1
    29    16    18    1
    30    16    40    1
    31    18    19   ar
    32    18    23   ar
    33    19    20   ar
    34    19    41    1
    35    20    21   ar
    36    20    42    1
    37    21    22   ar
    38    21    24    1
    39    22    23   ar
    40    22    43    1
    41    23    44    1
    42    24    45    1
    43    26    46    1
    44    27    47    1
    45    28    48    1
    46    29    49    1
    47    30    50    1
    48     1    31    1
    49     1    27    1
    50     2    32    1
    51     2    28    1
    52     4    34    1
    53     4    30    1
