@<TRIPOS>MOLECULE
*****
 50 53 0 0 0
SMALL
GASTEIGER

@<TRIPOS>ATOM
     1 C         0.337828   -0.725833   2.032202 C.3        1 UNL1     0.1889
     2 C         0.002521   -0.958134   0.534355 C.3        1 UNL1     0.1342
     3 C         -1.331047   -1.677355   0.27983 C.3        1 UNL1     0.1174
     4 C         -1.655754   -2.722009   1.350523 C.3        1 UNL1     0.1456
     5 C         -1.438605   -2.190288   2.778977 C.3        1 UNL1     0.2326
     6 O         -0.095184   -1.737206   2.929988 O.3        1 UNL1     -0.3076
     7 O         -2.414376   -1.211671   3.180851 O.3        1 UNL1     -0.4605
     8 C         -2.735967   -1.193241   4.526127 C.ar        1 UNL1     0.1310
     9 C         -3.009049   -2.319745   5.309528 C.ar        1 UNL1     0.0226
     10 C         -3.308911   -2.198639   6.671628 C.ar        1 UNL1     0.1343
     11 C         -3.319596   -0.948759   7.289306 C.ar        1 UNL1     0.1007
     12 C         -3.08883   0.186973   6.508509 C.ar        1 UNL1     0.1389
     13 C         -2.789946   0.065152   5.138378 C.ar        1 UNL1     0.0229
     14 C         -3.547477   -0.770324   8.742022 C.2        1 UNL1     0.1740
     15 C         -3.303689   0.611954   9.272516 C.3        1 UNL1     0.0520
     16 C         -3.844514   1.61704   8.264911 C.3        1 UNL1     0.1322
     17 O         -3.181175   1.472343   6.98972 O.3        1 UNL1     -0.4828
     18 C         -5.372713   1.648089   8.185105 C.ar        1 UNL1     -0.0067
     19 C         -6.006354   2.654992   7.428231 C.ar        1 UNL1     -0.0516
     20 C         -7.402624   2.740543   7.372768 C.ar        1 UNL1     -0.0198
     21 C         -8.174637   1.83171   8.074085 C.ar        1 UNL1     0.1169
     22 C         -7.580091   0.808642   8.801191 C.ar        1 UNL1     -0.0198
     23 C         -6.184023   0.711707   8.841884 C.ar        1 UNL1     -0.0516
     24 O         -9.530827   1.969284   8.026934 O.3        1 UNL1     -0.5068
     25 O         -3.83839   -1.692671   9.499077 O.2        1 UNL1     -0.2917
     26 O         -3.5669   -3.336272   7.379313 O.3        1 UNL1     -0.5058
     27 O         -0.009973   0.569358   2.495128 O.3        1 UNL1     -0.3648
     28 O         1.042857   -1.766684   -0.045863 O.3        1 UNL1     -0.3841
     29 O         -2.387395   -0.734134   0.088527 O.3        1 UNL1     -0.3863
     30 O         -0.814968   -3.879553   1.153389 O.3        1 UNL1     -0.3829
     31 H         1.429531   -0.758382   2.117079 H        1 UNL1     0.0937
     32 H         -0.0   0.0   0.0 H        1 UNL1     0.0671
     33 H         -1.244724   -2.21619   -0.67407 H        1 UNL1     0.0649
     34 H         -2.693252   -3.05742   1.243297 H        1 UNL1     0.0683
     35 H         -1.548245   -3.079842   3.411869 H        1 UNL1     0.1085
     36 H         -2.961631   -3.32333   4.901251 H        1 UNL1     0.0691
     37 H         -2.615236   0.964842   4.552265 H        1 UNL1     0.0691
     38 H         -2.223054   0.729462   9.406481 H        1 UNL1     0.0385
     39 H         -3.78252   0.709831   10.252782 H        1 UNL1     0.0385
     40 H         -3.551456   2.616066   8.615032 H        1 UNL1     0.0789
     41 H         -5.422625   3.385892   6.876239 H        1 UNL1     0.0623
     42 H         -7.879292   3.528748   6.795246 H        1 UNL1     0.0654
     43 H         -8.17535   0.082545   9.341895 H        1 UNL1     0.0654
     44 H         -5.753484   -0.106445   9.411189 H        1 UNL1     0.0623
     45 H         -9.769515   2.805194   8.459368 H        1 UNL1     0.2921
     46 H         -3.179324   -3.260838   8.265602 H        1 UNL1     0.2922
     47 H         0.399278   1.245425   1.93718 H        1 UNL1     0.2126
     48 H         1.830164   -1.194402   -0.125697 H        1 UNL1     0.2101
     49 H         -2.380886   -0.412562   -0.827083 H        1 UNL1     0.2100
     50 H         -1.081804   -4.306413   0.312971 H        1 UNL1     0.2102
@<TRIPOS>BOND
     1     1     2    1
     2     1     6    1
     3     2     3    1
     4     3     4    1
     5     3    29    1
     6     3    33    1
     7     4     5    1
     8     5     6    1
     9     5     7    1
    10     5    35    1
    11     7     8    1
    12     8     9   ar
    13     8    13   ar
    14     9    10   ar
    15     9    36    1
    16    10    11   ar
    17    10    26    1
    18    11    12   ar
    19    11    14    1
    20    12    13   ar
    21    12    17    1
    22    13    37    1
    23    14    15    1
    24    14    25    2
    25    15    16    1
    26    15    38    1
    27    15    39    1
    28    16    17    1
    29    16    18    1
    30    16    40    1
    31    18    19   ar
    32    18    23   ar
    33    19    20   ar
    34    19    41    1
    35    20    21   ar
    36    20    42    1
    37    21    22   ar
    38    21    24    1
    39    22    23   ar
    40    22    43    1
    41    23    44    1
    42    24    45    1
    43    26    46    1
    44    27    47    1
    45    28    48    1
    46    29    49    1
    47    30    50    1
    48     1    31    1
    49     1    27    1
    50     2    32    1
    51     2    28    1
    52     4    34    1
    53     4    30    1
