@<TRIPOS>MOLECULE
*****
 50 53 0 0 0
SMALL
GASTEIGER

@<TRIPOS>ATOM
     1 C         -0.338626   -1.333102   1.696755 C.3        1 UNL1     0.1889
     2 C         -0.465489   -0.974764   0.191617 C.3        1 UNL1     0.1342
     3 C         -1.905349   -0.956447   -0.344043 C.3        1 UNL1     0.1174
     4 C         -2.795726   -2.015459   0.310817 C.3        1 UNL1     0.1456
     5 C         -2.646858   -2.046353   1.84289 C.3        1 UNL1     0.2326
     6 O         -1.283183   -2.269379   2.194341 O.3        1 UNL1     -0.3076
     7 O         -3.219751   -0.89991   2.497705 O.3        1 UNL1     -0.4605
     8 C         -3.732509   -1.118265   3.763773 C.ar        1 UNL1     0.1310
     9 C         -4.552599   -2.190207   4.132141 C.ar        1 UNL1     0.0226
     10 C         -5.008486   -2.333824   5.447984 C.ar        1 UNL1     0.1343
     11 C         -4.635468   -1.421101   6.4337 C.ar        1 UNL1     0.1007
     12 C         -3.850509   -0.323973   6.069098 C.ar        1 UNL1     0.1389
     13 C         -3.394419   -0.178347   4.745389 C.ar        1 UNL1     0.0229
     14 C         -5.019274   -1.570737   7.856534 C.2        1 UNL1     0.1740
     15 C         -4.349492   -0.627656   8.812326 C.3        1 UNL1     0.0520
     16 C         -4.275072   0.746365   8.160801 C.3        1 UNL1     0.1322
     17 O         -3.514301   0.691583   6.933896 O.3        1 UNL1     -0.4828
     18 C         -5.632121   1.443043   8.035177 C.ar        1 UNL1     -0.0067
     19 C         -6.006072   2.013612   6.801149 C.ar        1 UNL1     -0.0516
     20 C         -7.219141   2.69908   6.664912 C.ar        1 UNL1     -0.0198
     21 C         -8.061721   2.826942   7.754655 C.ar        1 UNL1     0.1169
     22 C         -7.736536   2.247194   8.974075 C.ar        1 UNL1     -0.0198
     23 C         -6.532038   1.545823   9.105681 C.ar        1 UNL1     -0.0516
     24 O         -9.217089   3.533865   7.594084 O.3        1 UNL1     -0.5068
     25 O         -5.771333   -2.451721   8.264894 O.2        1 UNL1     -0.2917
     26 O         -5.806376   -3.400908   5.741733 O.3        1 UNL1     -0.5058
     27 O         -0.231629   -0.198   2.541078 O.3        1 UNL1     -0.3648
     28 O         0.263654   -1.95266   -0.57309 O.3        1 UNL1     -0.3841
     29 O         -2.459274   0.358453   -0.264437 O.3        1 UNL1     -0.3863
     30 O         -2.450878   -3.315458   -0.215274 O.3        1 UNL1     -0.3829
     31 H         0.620403   -1.849033   1.815738 H        1 UNL1     0.0937
     32 H         0.0   0.0   0.0 H        1 UNL1     0.0671
     33 H         -1.867132   -1.192501   -1.416674 H        1 UNL1     0.0649
     34 H         -3.8449   -1.833343   0.053003 H        1 UNL1     0.0683
     35 H         -3.204591   -2.941693   2.144848 H        1 UNL1     0.1085
     36 H         -4.831894   -2.963694   3.425154 H        1 UNL1     0.0691
     37 H         -2.785441   0.685265   4.486907 H        1 UNL1     0.0691
     38 H         -3.348646   -1.021333   9.01934 H        1 UNL1     0.0385
     39 H         -4.91139   -0.610249   9.752403 H        1 UNL1     0.0385
     40 H         -3.679587   1.387589   8.82469 H        1 UNL1     0.0789
     41 H         -5.357952   1.934926   5.933162 H        1 UNL1     0.0623
     42 H         -7.490768   3.144897   5.711248 H        1 UNL1     0.0654
     43 H         -8.396016   2.328354   9.829884 H        1 UNL1     0.0654
     44 H         -6.314884   1.09661   10.069993 H        1 UNL1     0.0623
     45 H         -8.987699   4.44443   7.347164 H        1 UNL1     0.2921
     46 H         -5.40601   -3.91628   6.459723 H        1 UNL1     0.2922
     47 H         0.510832   0.356733   2.263802 H        1 UNL1     0.2126
     48 H         1.199056   -1.878655   -0.302391 H        1 UNL1     0.2101
     49 H         -2.019702   0.941014   -0.904118 H        1 UNL1     0.2100
     50 H         -2.687741   -3.328588   -1.165767 H        1 UNL1     0.2102
@<TRIPOS>BOND
     1     1     2    1
     2     1     6    1
     3     2     3    1
     4     3     4    1
     5     3    29    1
     6     3    33    1
     7     4     5    1
     8     5     6    1
     9     5     7    1
    10     5    35    1
    11     7     8    1
    12     8     9   ar
    13     8    13   ar
    14     9    10   ar
    15     9    36    1
    16    10    11   ar
    17    10    26    1
    18    11    12   ar
    19    11    14    1
    20    12    13   ar
    21    12    17    1
    22    13    37    1
    23    14    15    1
    24    14    25    2
    25    15    16    1
    26    15    38    1
    27    15    39    1
    28    16    17    1
    29    16    18    1
    30    16    40    1
    31    18    19   ar
    32    18    23   ar
    33    19    20   ar
    34    19    41    1
    35    20    21   ar
    36    20    42    1
    37    21    22   ar
    38    21    24    1
    39    22    23   ar
    40    22    43    1
    41    23    44    1
    42    24    45    1
    43    26    46    1
    44    27    47    1
    45    28    48    1
    46    29    49    1
    47    30    50    1
    48     1    31    1
    49     1    27    1
    50     2    32    1
    51     2    28    1
    52     4    34    1
    53     4    30    1
