@<TRIPOS>MOLECULE
*****
 50 53 0 0 0
SMALL
GASTEIGER

@<TRIPOS>ATOM
     1 C         -0.39132   -1.400056   1.630189 C.3        1 UNL1     0.1889
     2 C         -0.426581   -1.00234   0.130016 C.3        1 UNL1     0.1342
     3 C         -1.822492   -1.039827   -0.510682 C.3        1 UNL1     0.1174
     4 C         -2.701642   -2.161866   0.047207 C.3        1 UNL1     0.1456
     5 C         -2.663566   -2.232432   1.584716 C.3        1 UNL1     0.2326
     6 O         -1.319377   -2.397448   2.030581 O.3        1 UNL1     -0.3076
     7 O         -3.341926   -1.136908   2.22579 O.3        1 UNL1     -0.4605
     8 C         -3.93358   -1.419624   3.443799 C.ar        1 UNL1     0.1310
     9 C         -4.721143   -2.542217   3.72098 C.ar        1 UNL1     0.0226
     10 C         -5.2637   -2.749005   4.994862 C.ar        1 UNL1     0.1343
     11 C         -5.011888   -1.849508   6.029916 C.ar        1 UNL1     0.1007
     12 C         -4.260906   -0.703652   5.754553 C.ar        1 UNL1     0.1389
     13 C         -3.717678   -0.494607   4.4729 C.ar        1 UNL1     0.0229
     14 C         -5.490147   -2.061982   7.415657 C.2        1 UNL1     0.1740
     15 C         -4.942174   -1.116363   8.443801 C.3        1 UNL1     0.0520
     16 C         -4.892412   0.279079   7.836989 C.3        1 UNL1     0.1322
     17 O         -4.042312   0.300376   6.669108 O.3        1 UNL1     -0.4828
     18 C         -6.271268   0.910302   7.629533 C.ar        1 UNL1     -0.0067
     19 C         -6.368871   2.1719   7.007394 C.ar        1 UNL1     -0.0516
     20 C         -7.610172   2.798597   6.844954 C.ar        1 UNL1     -0.0198
     21 C         -8.757847   2.178776   7.305922 C.ar        1 UNL1     0.1169
     22 C         -8.697669   0.921387   7.892601 C.ar        1 UNL1     -0.0198
     23 C         -7.458567   0.286265   8.038548 C.ar        1 UNL1     -0.0516
     24 O         -9.944405   2.836354   7.164254 O.3        1 UNL1     -0.5068
     25 O         -6.222866   -2.991767   7.742931 O.2        1 UNL1     -0.2917
     26 O         -6.023961   -3.863336   5.199442 O.3        1 UNL1     -0.5058
     27 O         -0.405773   -0.287564   2.510496 O.3        1 UNL1     -0.3648
     28 O         0.406596   -1.918382   -0.604416 O.3        1 UNL1     -0.3841
     29 O         -2.448798   0.242535   -0.437046 O.3        1 UNL1     -0.3863
     30 O         -2.251765   -3.426092   -0.486677 O.3        1 UNL1     -0.3829
     31 H         0.58215   -1.870618   1.806271 H        1 UNL1     0.0937
     32 H         0.0   0.0   0.0 H        1 UNL1     0.0671
     33 H         -1.693799   -1.240508   -1.583475 H        1 UNL1     0.0649
     34 H         -3.737293   -2.024787   -0.283001 H        1 UNL1     0.0683
     35 H         -3.194228   -3.163515   1.820004 H        1 UNL1     0.1085
     36 H         -4.907238   -3.306602   2.974518 H        1 UNL1     0.0691
     37 H         -3.137491   0.406037   4.283911 H        1 UNL1     0.0691
     38 H         -3.939878   -1.465497   8.714053 H        1 UNL1     0.0385
     39 H         -5.571318   -1.156151   9.339554 H        1 UNL1     0.0385
     40 H         -4.381338   0.928629   8.560458 H        1 UNL1     0.0789
     41 H         -5.481746   2.683239   6.64519 H        1 UNL1     0.0623
     42 H         -7.671041   3.776762   6.374318 H        1 UNL1     0.0654
     43 H         -9.591928   0.420348   8.243557 H        1 UNL1     0.0654
     44 H         -7.449857   -0.700297   8.491831 H        1 UNL1     0.0623
     45 H         -9.89317   3.671185   7.657355 H        1 UNL1     0.2921
     46 H         -5.65064   -4.379835   5.931064 H        1 UNL1     0.2922
     47 H         0.325711   0.311323   2.305254 H        1 UNL1     0.2126
     48 H         1.314591   -1.805892   -0.262914 H        1 UNL1     0.2101
     49 H         -1.993088   0.866574   -1.024155 H        1 UNL1     0.2100
     50 H         -2.417619   -3.421808   -1.452175 H        1 UNL1     0.2102
@<TRIPOS>BOND
     1     1     2    1
     2     1     6    1
     3     2     3    1
     4     3     4    1
     5     3    29    1
     6     3    33    1
     7     4     5    1
     8     5     6    1
     9     5     7    1
    10     5    35    1
    11     7     8    1
    12     8     9   ar
    13     8    13   ar
    14     9    10   ar
    15     9    36    1
    16    10    11   ar
    17    10    26    1
    18    11    12   ar
    19    11    14    1
    20    12    13   ar
    21    12    17    1
    22    13    37    1
    23    14    15    1
    24    14    25    2
    25    15    16    1
    26    15    38    1
    27    15    39    1
    28    16    17    1
    29    16    18    1
    30    16    40    1
    31    18    19   ar
    32    18    23   ar
    33    19    20   ar
    34    19    41    1
    35    20    21   ar
    36    20    42    1
    37    21    22   ar
    38    21    24    1
    39    22    23   ar
    40    22    43    1
    41    23    44    1
    42    24    45    1
    43    26    46    1
    44    27    47    1
    45    28    48    1
    46    29    49    1
    47    30    50    1
    48     1    31    1
    49     1    27    1
    50     2    32    1
    51     2    28    1
    52     4    34    1
    53     4    30    1
