@<TRIPOS>MOLECULE
*****
 50 53 0 0 0
SMALL
GASTEIGER

@<TRIPOS>ATOM
     1 C         -0.35022   -1.338341   1.690264 C.3        1 UNL1     0.1889
     2 C         -0.471657   -0.972807   0.18641 C.3        1 UNL1     0.1342
     3 C         -1.910204   -0.943676   -0.352292 C.3        1 UNL1     0.1174
     4 C         -2.808256   -2.000202   0.29607 C.3        1 UNL1     0.1456
     5 C         -2.66294   -2.038547   1.828315 C.3        1 UNL1     0.2326
     6 O         -1.301381   -2.271141   2.181765 O.3        1 UNL1     -0.3076
     7 O         -3.23049   -0.891555   2.486812 O.3        1 UNL1     -0.4605
     8 C         -3.754105   -1.113896   3.747732 C.ar        1 UNL1     0.1310
     9 C         -4.586069   -2.181077   4.103062 C.ar        1 UNL1     0.0226
     10 C         -5.052521   -2.329515   5.414661 C.ar        1 UNL1     0.1343
     11 C         -4.678601   -1.426705   6.409124 C.ar        1 UNL1     0.1007
     12 C         -3.881572   -0.334058   6.057483 C.ar        1 UNL1     0.1389
     13 C         -3.414844   -0.18356   4.738033 C.ar        1 UNL1     0.0229
     14 C         -5.073788   -1.582507   7.828176 C.2        1 UNL1     0.1740
     15 C         -4.402644   -0.651733   8.795013 C.3        1 UNL1     0.0520
     16 C         -4.311668   0.725917   8.153328 C.3        1 UNL1     0.1322
     17 O         -3.542707   0.67271   6.93147 O.3        1 UNL1     -0.4828
     18 C         -5.661688   1.435246   8.022859 C.ar        1 UNL1     -0.0067
     19 C         -6.021894   2.01731   6.790111 C.ar        1 UNL1     -0.0516
     20 C         -7.227966   2.714242   6.649969 C.ar        1 UNL1     -0.0198
     21 C         -8.077122   2.842158   7.734588 C.ar        1 UNL1     0.1169
     22 C         -7.765654   2.25144   8.952323 C.ar        1 UNL1     -0.0198
     23 C         -6.568259   1.538711   9.087668 C.ar        1 UNL1     -0.0516
     24 O         -9.225137   3.560204   7.570663 O.3        1 UNL1     -0.5068
     25 O         -5.836352   -2.459605   8.225266 O.2        1 UNL1     -0.2917
     26 O         -5.861716   -3.391533   5.695564 O.3        1 UNL1     -0.5058
     27 O         -0.238378   -0.207524   2.539693 O.3        1 UNL1     -0.3648
     28 O         0.253376   -1.951709   -0.580912 O.3        1 UNL1     -0.3841
     29 O         -2.456527   0.374124   -0.268233 O.3        1 UNL1     -0.3863
     30 O         -2.469936   -3.299949   -0.234859 O.3        1 UNL1     -0.3829
     31 H         0.605482   -1.860441   1.809109 H        1 UNL1     0.0937
     32 H         0.0   0.0   0.0 H        1 UNL1     0.0671
     33 H         -1.871025   -1.175348   -1.425844 H        1 UNL1     0.0649
     34 H         -3.855767   -1.810779   0.036764 H        1 UNL1     0.0683
     35 H         -3.226613   -2.931859   2.125207 H        1 UNL1     0.1085
     36 H         -4.867044   -2.947345   3.388914 H        1 UNL1     0.0691
     37 H         -2.796567   0.676412   4.48969 H        1 UNL1     0.0691
     38 H         -3.406752   -1.055513   9.006407 H        1 UNL1     0.0385
     39 H         -4.971034   -0.635714   9.731206 H        1 UNL1     0.0385
     40 H         -3.715366   1.357457   8.825714 H        1 UNL1     0.0789
     41 H         -5.368334   1.93878   5.9262 H        1 UNL1     0.0623
     42 H         -7.48893   3.16879   5.697449 H        1 UNL1     0.0654
     43 H         -8.430466   2.332624   9.803995 H        1 UNL1     0.0654
     44 H         -6.361869   1.081172   10.050428 H        1 UNL1     0.0623
     45 H         -8.986098   4.470363   7.331524 H        1 UNL1     0.2921
     46 H         -5.470951   -3.915178   6.412857 H        1 UNL1     0.2922
     47 H         0.504578   0.34686   2.263046 H        1 UNL1     0.2126
     48 H         1.189058   -1.88245   -0.309922 H        1 UNL1     0.2101
     49 H         -2.015939   0.955477   -0.908315 H        1 UNL1     0.2100
     50 H         -2.704783   -3.307601   -1.185912 H        1 UNL1     0.2102
@<TRIPOS>BOND
     1     1     2    1
     2     1     6    1
     3     2     3    1
     4     3     4    1
     5     3    29    1
     6     3    33    1
     7     4     5    1
     8     5     6    1
     9     5     7    1
    10     5    35    1
    11     7     8    1
    12     8     9   ar
    13     8    13   ar
    14     9    10   ar
    15     9    36    1
    16    10    11   ar
    17    10    26    1
    18    11    12   ar
    19    11    14    1
    20    12    13   ar
    21    12    17    1
    22    13    37    1
    23    14    15    1
    24    14    25    2
    25    15    16    1
    26    15    38    1
    27    15    39    1
    28    16    17    1
    29    16    18    1
    30    16    40    1
    31    18    19   ar
    32    18    23   ar
    33    19    20   ar
    34    19    41    1
    35    20    21   ar
    36    20    42    1
    37    21    22   ar
    38    21    24    1
    39    22    23   ar
    40    22    43    1
    41    23    44    1
    42    24    45    1
    43    26    46    1
    44    27    47    1
    45    28    48    1
    46    29    49    1
    47    30    50    1
    48     1    31    1
    49     1    27    1
    50     2    32    1
    51     2    28    1
    52     4    34    1
    53     4    30    1
