@<TRIPOS>MOLECULE
*****
 50 53 0 0 0
SMALL
GASTEIGER

@<TRIPOS>ATOM
     1 C         -1.354955   1.515823   -0.798236 C.3        1 UNL1     0.1889
     2 C         0.003039   0.763706   -0.787595 C.3        1 UNL1     0.1342
     3 C         1.233937   1.665171   -0.606725 C.3        1 UNL1     0.1174
     4 C         1.073456   3.030772   -1.279405 C.3        1 UNL1     0.1456
     5 C         -0.288757   3.68131   -0.976849 C.3        1 UNL1     0.2326
     6 O         -1.343437   2.81091   -1.380484 O.3        1 UNL1     -0.3076
     7 O         -0.418183   4.134439   0.383021 O.3        1 UNL1     -0.4605
     8 C         0.226847   3.371885   1.340087 C.ar        1 UNL1     0.1310
     9 C         -0.356537   2.338595   2.081218 C.ar        1 UNL1     0.0226
     10 C         0.38682   1.611101   3.018274 C.ar        1 UNL1     0.1343
     11 C         1.739142   1.883802   3.220013 C.ar        1 UNL1     0.1007
     12 C         2.322427   2.940332   2.515523 C.ar        1 UNL1     0.1389
     13 C         1.574097   3.673407   1.575292 C.ar        1 UNL1     0.0229
     14 C         2.59244   1.091916   4.135957 C.2        1 UNL1     0.1740
     15 C         4.063608   1.378022   4.062774 C.3        1 UNL1     0.0520
     16 C         4.25537   2.881233   3.916 C.3        1 UNL1     0.1322
     17 O         3.615681   3.364866   2.714349 O.3        1 UNL1     -0.4828
     18 C         3.911513   3.672605   5.180206 C.ar        1 UNL1     -0.0067
     19 C         2.659604   4.314213   5.276526 C.ar        1 UNL1     -0.0516
     20 C         2.331925   5.085056   6.398305 C.ar        1 UNL1     -0.0198
     21 C         3.248263   5.227761   7.424847 C.ar        1 UNL1     0.1169
     22 C         4.476183   4.580869   7.374051 C.ar        1 UNL1     -0.0198
     23 C         4.7969   3.794929   6.260725 C.ar        1 UNL1     -0.0516
     24 O         2.908684   6.017019   8.484167 O.3        1 UNL1     -0.5068
     25 O         2.160396   0.198148   4.859146 O.2        1 UNL1     -0.2917
     26 O         -0.241861   0.616558   3.709092 O.3        1 UNL1     -0.5058
     27 O         -2.012922   1.51251   0.458687 O.3        1 UNL1     -0.3648
     28 O         0.154836   0.078562   -2.044671 O.3        1 UNL1     -0.3841
     29 O         1.589752   1.766551   0.773583 O.3        1 UNL1     -0.3863
     30 O         1.205182   2.873109   -2.708909 O.3        1 UNL1     -0.3829
     31 H         -2.022844   0.946316   -1.453724 H        1 UNL1     0.0937
     32 H         0.0   0.0   0.0 H        1 UNL1     0.0671
     33 H         2.086488   1.169996   -1.092192 H        1 UNL1     0.0649
     34 H         1.875369   3.703579   -0.955881 H        1 UNL1     0.0683
     35 H         -0.320355   4.551591   -1.6443 H        1 UNL1     0.1085
     36 H         -1.38849   2.041115   1.930556 H        1 UNL1     0.0691
     37 H         2.051254   4.491902   1.040615 H        1 UNL1     0.0691
     38 H         4.462383   0.842372   3.194682 H        1 UNL1     0.0385
     39 H         4.55098   0.984214   4.961196 H        1 UNL1     0.0385
     40 H         5.326437   3.05587   3.746184 H        1 UNL1     0.0789
     41 H         1.92657   4.225193   4.480041 H        1 UNL1     0.0623
     42 H         1.367963   5.584581   6.455441 H        1 UNL1     0.0654
     43 H         5.195257   4.673593   8.179188 H        1 UNL1     0.0654
     44 H         5.760859   3.295302   6.259197 H        1 UNL1     0.0623
     45 H         2.007331   6.349086   8.342708 H        1 UNL1     0.2921
     46 H         0.407482   -0.054251   3.973253 H        1 UNL1     0.2922
     47 H         -2.833638   1.003127   0.405634 H        1 UNL1     0.2126
     48 H         1.040848   0.309894   -2.384084 H        1 UNL1     0.2101
     49 H         2.200523   1.050538   1.010389 H        1 UNL1     0.2100
     50 H         1.119197   3.758583   -3.119098 H        1 UNL1     0.2102
@<TRIPOS>BOND
     1     1     2    1
     2     1     6    1
     3     2     3    1
     4     3     4    1
     5     3    29    1
     6     3    33    1
     7     4     5    1
     8     5     6    1
     9     5     7    1
    10     5    35    1
    11     7     8    1
    12     8     9   ar
    13     8    13   ar
    14     9    10   ar
    15     9    36    1
    16    10    11   ar
    17    10    26    1
    18    11    12   ar
    19    11    14    1
    20    12    13   ar
    21    12    17    1
    22    13    37    1
    23    14    15    1
    24    14    25    2
    25    15    16    1
    26    15    38    1
    27    15    39    1
    28    16    17    1
    29    16    18    1
    30    16    40    1
    31    18    19   ar
    32    18    23   ar
    33    19    20   ar
    34    19    41    1
    35    20    21   ar
    36    20    42    1
    37    21    22   ar
    38    21    24    1
    39    22    23   ar
    40    22    43    1
    41    23    44    1
    42    24    45    1
    43    26    46    1
    44    27    47    1
    45    28    48    1
    46    29    49    1
    47    30    50    1
    48     1    31    1
    49     1    27    1
    50     2    32    1
    51     2    28    1
    52     4    34    1
    53     4    30    1
