@<TRIPOS>MOLECULE
*****
 50 53 0 0 0
SMALL
GASTEIGER

@<TRIPOS>ATOM
     1 C         -0.081081   -1.032494   1.923067 C.3        1 UNL1     0.1889
     2 C         -0.558116   -0.82464   0.460475 C.3        1 UNL1     0.1342
     3 C         -2.063417   -0.557176   0.30883 C.3        1 UNL1     0.1174
     4 C         -2.907932   -1.320908   1.331877 C.3        1 UNL1     0.1456
     5 C         -2.344696   -1.212762   2.760664 C.3        1 UNL1     0.2326
     6 O         -0.99898   -1.682957   2.789528 O.3        1 UNL1     -0.3076
     7 O         -2.499586   0.095389   3.34038 O.3        1 UNL1     -0.4605
     8 C         -2.667766   0.134192   4.712874 C.ar        1 UNL1     0.1310
     9 C         -3.527926   -0.689086   5.447474 C.ar        1 UNL1     0.0226
     10 C         -3.61531   -0.584434   6.840784 C.ar        1 UNL1     0.1343
     11 C         -2.82627   0.330715   7.536312 C.ar        1 UNL1     0.1007
     12 C         -1.993758   1.186389   6.81 C.ar        1 UNL1     0.1389
     13 C         -1.908029   1.082769   5.408806 C.ar        1 UNL1     0.0229
     14 C         -2.816759   0.425946   9.014485 C.2        1 UNL1     0.1740
     15 C         -1.750682   1.303549   9.601719 C.3        1 UNL1     0.0520
     16 C         -1.620057   2.548501   8.735123 C.3        1 UNL1     0.1322
     17 O         -1.255124   2.195789   7.382537 O.3        1 UNL1     -0.4828
     18 C         -2.812749   3.501771   8.842292 C.ar        1 UNL1     -0.0067
     19 C         -3.411912   3.996368   7.665606 C.ar        1 UNL1     -0.0516
     20 C         -4.473743   4.906627   7.728126 C.ar        1 UNL1     -0.0198
     21 C         -4.939653   5.334701   8.958373 C.ar        1 UNL1     0.1169
     22 C         -4.392218   4.840029   10.135001 C.ar        1 UNL1     -0.0198
     23 C         -3.342578   3.915662   10.07289 C.ar        1 UNL1     -0.0516
     24 O         -5.950112   6.250629   8.979531 O.3        1 UNL1     -0.5068
     25 O         -3.567801   -0.222188   9.7386 O.2        1 UNL1     -0.2917
     26 O         -4.474543   -1.416052   7.497834 O.3        1 UNL1     -0.5058
     27 O         0.456616   0.13971   2.514342 O.3        1 UNL1     -0.3648
     28 O         -0.256679   -2.014991   -0.291127 O.3        1 UNL1     -0.3841
     29 O         -2.331385   0.846506   0.307434 O.3        1 UNL1     -0.3863
     30 O         -2.959431   -2.714807   0.957601 O.3        1 UNL1     -0.3829
     31 H         0.76599   -1.725833   1.880289 H        1 UNL1     0.0937
     32 H         0.0   0.0   0.0 H        1 UNL1     0.0671
     33 H         -2.368894   -0.913516   -0.684863 H        1 UNL1     0.0649
     34 H         -3.937911   -0.947542   1.319936 H        1 UNL1     0.0683
     35 H         -2.944979   -1.928277   3.336492 H        1 UNL1     0.1085
     36 H         -4.125938   -1.458269   4.971175 H        1 UNL1     0.0691
     37 H         -1.253138   1.761399   4.866523 H        1 UNL1     0.0691
     38 H         -0.817833   0.729778   9.611929 H        1 UNL1     0.0385
     39 H         -2.014807   1.545455   10.636851 H        1 UNL1     0.0385
     40 H         -0.759091   3.116704   9.112483 H        1 UNL1     0.0789
     41 H         -3.058428   3.682811   6.687658 H        1 UNL1     0.0623
     42 H         -4.91954   5.289855   6.81357 H        1 UNL1     0.0654
     43 H         -4.759406   5.157053   11.103804 H        1 UNL1     0.0654
     44 H         -2.945772   3.542047   11.011933 H        1 UNL1     0.0623
     45 H         -5.645795   7.053537   8.526269 H        1 UNL1     0.2921
     46 H         -3.986426   -1.924053   8.164982 H        1 UNL1     0.2922
     47 H         1.180733   0.485367   1.973939 H        1 UNL1     0.2126
     48 H         0.713469   -2.123959   -0.265205 H        1 UNL1     0.2101
     49 H         -1.989631   1.246909   -0.507842 H        1 UNL1     0.2100
     50 H         -3.446041   -2.781619   0.109981 H        1 UNL1     0.2102
@<TRIPOS>BOND
     1     1     2    1
     2     1     6    1
     3     2     3    1
     4     3     4    1
     5     3    29    1
     6     3    33    1
     7     4     5    1
     8     5     6    1
     9     5     7    1
    10     5    35    1
    11     7     8    1
    12     8     9   ar
    13     8    13   ar
    14     9    10   ar
    15     9    36    1
    16    10    11   ar
    17    10    26    1
    18    11    12   ar
    19    11    14    1
    20    12    13   ar
    21    12    17    1
    22    13    37    1
    23    14    15    1
    24    14    25    2
    25    15    16    1
    26    15    38    1
    27    15    39    1
    28    16    17    1
    29    16    18    1
    30    16    40    1
    31    18    19   ar
    32    18    23   ar
    33    19    20   ar
    34    19    41    1
    35    20    21   ar
    36    20    42    1
    37    21    22   ar
    38    21    24    1
    39    22    23   ar
    40    22    43    1
    41    23    44    1
    42    24    45    1
    43    26    46    1
    44    27    47    1
    45    28    48    1
    46    29    49    1
    47    30    50    1
    48     1    31    1
    49     1    27    1
    50     2    32    1
    51     2    28    1
    52     4    34    1
    53     4    30    1
