@<TRIPOS>MOLECULE
*****
 50 53 0 0 0
SMALL
GASTEIGER

@<TRIPOS>ATOM
     1 C         -0.77043   -2.000889   -0.416758 C.3        1 UNL1     0.1889
     2 C         -0.192669   -0.930666   0.547998 C.3        1 UNL1     0.1342
     3 C         1.088655   -1.354223   1.282351 C.3        1 UNL1     0.1174
     4 C         1.11031   -2.845716   1.626 C.3        1 UNL1     0.1456
     5 C         0.689873   -3.731121   0.438711 C.3        1 UNL1     0.2326
     6 O         -0.608138   -3.352871   -0.014018 O.3        1 UNL1     -0.3076
     7 O         1.66674   -3.775731   -0.617254 O.3        1 UNL1     -0.4605
     8 C         1.570927   -2.781371   -1.574122 C.ar        1 UNL1     0.1310
     9 C         2.582417   -1.872169   -1.902057 C.ar        1 UNL1     0.0226
     10 C         2.394324   -0.90958   -2.901028 C.ar        1 UNL1     0.1343
     11 C         1.197437   -0.848179   -3.613441 C.ar        1 UNL1     0.1007
     12 C         0.165227   -1.724102   -3.26691 C.ar        1 UNL1     0.1389
     13 C         0.353659   -2.690162   -2.260604 C.ar        1 UNL1     0.0229
     14 C         0.975371   0.093341   -4.735217 C.2        1 UNL1     0.1740
     15 C         -0.27788   -0.127917   -5.530173 C.3        1 UNL1     0.0520
     16 C         -1.403529   -0.479344   -4.567172 C.3        1 UNL1     0.1322
     17 O         -1.089898   -1.680424   -3.828178 O.3        1 UNL1     -0.4828
     18 C         -1.863358   0.69621   -3.70152 C.ar        1 UNL1     -0.0067
     19 C         -1.128115   1.899241   -3.720171 C.ar        1 UNL1     -0.0516
     20 C         -1.493683   2.977215   -2.905128 C.ar        1 UNL1     -0.0198
     21 C         -2.585628   2.862344   -2.063529 C.ar        1 UNL1     0.1169
     22 C         -3.349314   1.702447   -2.047381 C.ar        1 UNL1     -0.0198
     23 C         -2.994922   0.630966   -2.875868 C.ar        1 UNL1     -0.0516
     24 O         -2.888935   3.919343   -1.256586 O.3        1 UNL1     -0.5068
     25 O         1.785685   0.955449   -5.064831 O.2        1 UNL1     -0.2917
     26 O         3.420047   -0.051611   -3.171891 O.3        1 UNL1     -0.5058
     27 O         -0.388391   -1.807869   -1.769377 O.3        1 UNL1     -0.3648
     28 O         -1.18378   -0.637448   1.55021 O.3        1 UNL1     -0.3841
     29 O         2.248735   -0.935725   0.560405 O.3        1 UNL1     -0.3863
     30 O         0.210937   -3.090815   2.729061 O.3        1 UNL1     -0.3829
     31 H         -1.857287   -1.863782   -0.421339 H        1 UNL1     0.0937
     32 H         0.0   0.0   0.0 H        1 UNL1     0.0671
     33 H         1.125197   -0.807979   2.235242 H        1 UNL1     0.0649
     34 H         2.112438   -3.138406   1.958372 H        1 UNL1     0.0683
     35 H         0.595711   -4.732952   0.876145 H        1 UNL1     0.1085
     36 H         3.555158   -1.904381   -1.423665 H        1 UNL1     0.0691
     37 H         -0.466004   -3.359704   -2.008891 H        1 UNL1     0.0691
     38 H         -0.085859   -0.948553   -6.229609 H        1 UNL1     0.0385
     39 H         -0.497425   0.773489   -6.11245 H        1 UNL1     0.0385
     40 H         -2.276775   -0.751379   -5.175414 H        1 UNL1     0.0789
     41 H         -0.261536   2.011192   -4.365273 H        1 UNL1     0.0623
     42 H         -0.911633   3.895373   -2.919792 H        1 UNL1     0.0654
     43 H         -4.215269   1.607295   -1.403193 H        1 UNL1     0.0654
     44 H         -3.620243   -0.256099   -2.845296 H        1 UNL1     0.0623
     45 H         -2.102646   4.139731   -0.731327 H        1 UNL1     0.2921
     46 H         3.582312   -0.033068   -4.128311 H        1 UNL1     0.2922
     47 H         -0.544329   -0.890434   -2.033679 H        1 UNL1     0.2126
     48 H         -2.051431   -0.852235   1.156786 H        1 UNL1     0.2101
     49 H         2.111702   -1.070059   -0.390895 H        1 UNL1     0.2100
     50 H         -0.604877   -3.496063   2.368597 H        1 UNL1     0.2102
@<TRIPOS>BOND
     1     1     2    1
     2     1     6    1
     3     2     3    1
     4     3     4    1
     5     3    29    1
     6     3    33    1
     7     4     5    1
     8     5     6    1
     9     5     7    1
    10     5    35    1
    11     7     8    1
    12     8     9   ar
    13     8    13   ar
    14     9    10   ar
    15     9    36    1
    16    10    11   ar
    17    10    26    1
    18    11    12   ar
    19    11    14    1
    20    12    13   ar
    21    12    17    1
    22    13    37    1
    23    14    15    1
    24    14    25    2
    25    15    16    1
    26    15    38    1
    27    15    39    1
    28    16    17    1
    29    16    18    1
    30    16    40    1
    31    18    19   ar
    32    18    23   ar
    33    19    20   ar
    34    19    41    1
    35    20    21   ar
    36    20    42    1
    37    21    22   ar
    38    21    24    1
    39    22    23   ar
    40    22    43    1
    41    23    44    1
    42    24    45    1
    43    26    46    1
    44    27    47    1
    45    28    48    1
    46    29    49    1
    47    30    50    1
    48     1    31    1
    49     1    27    1
    50     2    32    1
    51     2    28    1
    52     4    34    1
    53     4    30    1
