@<TRIPOS>MOLECULE
*****
 50 53 0 0 0
SMALL
GASTEIGER

@<TRIPOS>ATOM
     1 C         -0.345569   -1.336324   1.692815 C.3        1 UNL1     0.1889
     2 C         -0.469086   -0.973659   0.188436 C.3        1 UNL1     0.1342
     3 C         -1.90812   -0.94903   -0.349189 C.3        1 UNL1     0.1174
     4 C         -2.803032   -2.006681   0.301675 C.3        1 UNL1     0.1456
     5 C         -2.656428   -2.042051   1.833869 C.3        1 UNL1     0.2326
     6 O         -1.29402   -2.27065   2.186649 O.3        1 UNL1     -0.3076
     7 O         -3.226322   -0.895355   2.490854 O.3        1 UNL1     -0.4605
     8 C         -3.741606   -1.115232   3.755632 C.ar        1 UNL1     0.1310
     9 C         -4.963965   -0.626218   4.228926 C.ar        1 UNL1     0.0226
     10 C         -5.407974   -0.918915   5.523949 C.ar        1 UNL1     0.1343
     11 C         -4.650669   -1.728257   6.369701 C.ar        1 UNL1     0.1007
     12 C         -3.409237   -2.188616   5.922824 C.ar        1 UNL1     0.1389
     13 C         -2.961794   -1.891987   4.62158 C.ar        1 UNL1     0.0229
     14 C         -5.110511   -2.138057   7.716833 C.2        1 UNL1     0.1740
     15 C         -4.278005   -3.185305   8.396357 C.3        1 UNL1     0.0520
     16 C         -2.810215   -2.883418   8.127256 C.3        1 UNL1     0.1322
     17 O         -2.534512   -2.90181   6.709258 O.3        1 UNL1     -0.4828
     18 C         -2.292352   -1.642308   8.858138 C.ar        1 UNL1     -0.0067
     19 C         -1.560002   -0.672614   8.142897 C.ar        1 UNL1     -0.0516
     20 C         -1.031627   0.450508   8.790491 C.ar        1 UNL1     -0.0198
     21 C         -1.221965   0.611331   10.151276 C.ar        1 UNL1     0.1169
     22 C         -1.967153   -0.309269   10.876554 C.ar        1 UNL1     -0.0198
     23 C         -2.511317   -1.422998   10.225746 C.ar        1 UNL1     -0.0516
     24 O         -0.660413   1.698091   10.754609 O.3        1 UNL1     -0.5068
     25 O         -6.145141   -1.723912   8.233078 O.2        1 UNL1     -0.2917
     26 O         -6.608847   -0.410246   5.924878 O.3        1 UNL1     -0.5058
     27 O         -0.235883   -0.203785   2.540229 O.3        1 UNL1     -0.3648
     28 O         0.257787   -1.95206   -0.577784 O.3        1 UNL1     -0.3841
     29 O         -2.45766   0.367547   -0.266948 O.3        1 UNL1     -0.3863
     30 O         -2.461887   -3.306486   -0.227304 O.3        1 UNL1     -0.3829
     31 H         0.611523   -1.855839   1.811802 H        1 UNL1     0.0937
     32 H         0.0   0.0   0.0 H        1 UNL1     0.0671
     33 H         -1.869199   -1.182434   -1.422375 H        1 UNL1     0.0649
     34 H         -3.851213   -1.820311   0.042866 H        1 UNL1     0.0683
     35 H         -3.217643   -2.936257   2.132723 H        1 UNL1     0.1085
     36 H         -5.624423   -0.038175   3.601135 H        1 UNL1     0.0691
     37 H         -1.991053   -2.261472   4.298107 H        1 UNL1     0.0691
     38 H         -4.564063   -4.157202   7.980287 H        1 UNL1     0.0385
     39 H         -4.510327   -3.18972   9.46677 H        1 UNL1     0.0385
     40 H         -2.227813   -3.722613   8.531088 H        1 UNL1     0.0789
     41 H         -1.388964   -0.780536   7.075775 H        1 UNL1     0.0623
     42 H         -0.458565   1.185134   8.230191 H        1 UNL1     0.0654
     43 H         -2.135075   -0.18528   11.939728 H        1 UNL1     0.0654
     44 H         -3.097013   -2.116572   10.821363 H        1 UNL1     0.0623
     45 H         0.302572   1.648518   10.640949 H        1 UNL1     0.2921
     46 H         -7.188771   -1.134759   6.208042 H        1 UNL1     0.2922
     47 H         0.508859   0.349121   2.265433 H        1 UNL1     0.2126
     48 H         1.193503   -1.880009   -0.307645 H        1 UNL1     0.2101
     49 H         -2.01902   0.948903   -0.908364 H        1 UNL1     0.2100
     50 H         -2.697455   -3.316345   -1.178158 H        1 UNL1     0.2102
@<TRIPOS>BOND
     1     1     2    1
     2     1     6    1
     3     2     3    1
     4     3     4    1
     5     3    29    1
     6     3    33    1
     7     4     5    1
     8     5     6    1
     9     5     7    1
    10     5    35    1
    11     7     8    1
    12     8     9   ar
    13     8    13   ar
    14     9    10   ar
    15     9    36    1
    16    10    11   ar
    17    10    26    1
    18    11    12   ar
    19    11    14    1
    20    12    13   ar
    21    12    17    1
    22    13    37    1
    23    14    15    1
    24    14    25    2
    25    15    16    1
    26    15    38    1
    27    15    39    1
    28    16    17    1
    29    16    18    1
    30    16    40    1
    31    18    19   ar
    32    18    23   ar
    33    19    20   ar
    34    19    41    1
    35    20    21   ar
    36    20    42    1
    37    21    22   ar
    38    21    24    1
    39    22    23   ar
    40    22    43    1
    41    23    44    1
    42    24    45    1
    43    26    46    1
    44    27    47    1
    45    28    48    1
    46    29    49    1
    47    30    50    1
    48     1    31    1
    49     1    27    1
    50     2    32    1
    51     2    28    1
    52     4    34    1
    53     4    30    1
