@<TRIPOS>MOLECULE
*****
 50 53 0 0 0
SMALL
GASTEIGER

@<TRIPOS>ATOM
     1 C         0.315308   -0.648801   2.06166 C.3        1 UNL1     0.1889
     2 C         0.008628   -0.938709   0.567725 C.3        1 UNL1     0.1342
     3 C         -1.309107   -1.687923   0.317284 C.3        1 UNL1     0.1174
     4 C         -1.635185   -2.699654   1.418734 C.3        1 UNL1     0.1456
     5 C         -1.450163   -2.114889   2.830888 C.3        1 UNL1     0.2326
     6 O         -0.116692   -1.635076   2.987421 O.3        1 UNL1     -0.3076
     7 O         -2.447674   -1.138784   3.182331 O.3        1 UNL1     -0.4605
     8 C         -2.791838   -1.078576   4.520783 C.ar        1 UNL1     0.1310
     9 C         -3.063629   -2.18112   5.337989 C.ar        1 UNL1     0.0226
     10 C         -3.38765   -2.017441   6.69007 C.ar        1 UNL1     0.1343
     11 C         -3.424466   -0.7474   7.264076 C.ar        1 UNL1     0.1007
     12 C         -3.195142   0.363895   6.448468 C.ar        1 UNL1     0.1389
     13 C         -2.871956   0.199213   5.088371 C.ar        1 UNL1     0.0229
     14 C         -3.678758   -0.522376   8.705899 C.2        1 UNL1     0.1740
     15 C         -3.461384   0.880357   9.19235 C.3        1 UNL1     0.0520
     16 C         -3.998047   1.843115   8.142089 C.3        1 UNL1     0.1322
     17 O         -3.311777   1.663648   6.88356 O.3        1 UNL1     -0.4828
     18 C         -5.524975   1.851176   8.036495 C.ar        1 UNL1     -0.0067
     19 C         -6.131822   1.764414   6.766683 C.ar        1 UNL1     -0.0516
     20 C         -7.524225   1.816748   6.6309 C.ar        1 UNL1     -0.0198
     21 C         -8.318644   1.962732   7.754027 C.ar        1 UNL1     0.1169
     22 C         -7.752117   2.017224   9.02088 C.ar        1 UNL1     -0.0198
     23 C         -6.360683   1.946357   9.158514 C.ar        1 UNL1     -0.0516
     24 O         -9.668702   2.047998   7.57946 O.3        1 UNL1     -0.5068
     25 O         -3.970527   -1.422039   9.489457 O.2        1 UNL1     -0.2917
     26 O         -3.64295   -3.133499   7.432244 O.3        1 UNL1     -0.5058
     27 O         -0.060366   0.655963   2.473055 O.3        1 UNL1     -0.3648
     28 O         1.070992   -1.750059   0.033123 O.3        1 UNL1     -0.3841
     29 O         -2.376757   -0.769222   0.075946 O.3        1 UNL1     -0.3863
     30 O         -0.773228   -3.849588   1.276008 O.3        1 UNL1     -0.3829
     31 H         1.405825   -0.660652   2.165161 H        1 UNL1     0.0937
     32 H         -0.0   0.0   0.0 H        1 UNL1     0.0671
     33 H         -1.198514   -2.25829   -0.615545 H        1 UNL1     0.0649
     34 H         -2.665381   -3.055392   1.306726 H        1 UNL1     0.0683
     35 H         -1.556378   -2.983446   3.49286 H        1 UNL1     0.1085
     36 H         -2.996699   -3.197376   4.965345 H        1 UNL1     0.0691
     37 H         -2.698926   1.080547   4.474528 H        1 UNL1     0.0691
     38 H         -2.384707   1.016681   9.33969 H        1 UNL1     0.0385
     39 H         -3.957679   1.005383   10.160771 H        1 UNL1     0.0385
     40 H         -3.723549   2.857333   8.462296 H        1 UNL1     0.0789
     41 H         -5.529791   1.658656   5.868894 H        1 UNL1     0.0623
     42 H         -7.979637   1.760775   5.645264 H        1 UNL1     0.0654
     43 H         -8.365696   2.116381   9.908348 H        1 UNL1     0.0654
     44 H         -5.952749   1.981357   10.164104 H        1 UNL1     0.0623
     45 H         -9.858853   2.829374   7.03539 H        1 UNL1     0.2921
     46 H         -3.045901   -3.157223   8.196693 H        1 UNL1     0.2922
     47 H         0.347477   1.31867   1.8983 H        1 UNL1     0.2126
     48 H         1.88318   -1.209242   0.07312 H        1 UNL1     0.2101
     49 H         -2.252397   -0.337314   -0.784161 H        1 UNL1     0.2100
     50 H         -1.004129   -4.297022   0.435651 H        1 UNL1     0.2102
@<TRIPOS>BOND
     1     1     2    1
     2     1     6    1
     3     2     3    1
     4     3     4    1
     5     3    29    1
     6     3    33    1
     7     4     5    1
     8     5     6    1
     9     5     7    1
    10     5    35    1
    11     7     8    1
    12     8     9   ar
    13     8    13   ar
    14     9    10   ar
    15     9    36    1
    16    10    11   ar
    17    10    26    1
    18    11    12   ar
    19    11    14    1
    20    12    13   ar
    21    12    17    1
    22    13    37    1
    23    14    15    1
    24    14    25    2
    25    15    16    1
    26    15    38    1
    27    15    39    1
    28    16    17    1
    29    16    18    1
    30    16    40    1
    31    18    19   ar
    32    18    23   ar
    33    19    20   ar
    34    19    41    1
    35    20    21   ar
    36    20    42    1
    37    21    22   ar
    38    21    24    1
    39    22    23   ar
    40    22    43    1
    41    23    44    1
    42    24    45    1
    43    26    46    1
    44    27    47    1
    45    28    48    1
    46    29    49    1
    47    30    50    1
    48     1    31    1
    49     1    27    1
    50     2    32    1
    51     2    28    1
    52     4    34    1
    53     4    30    1
