@<TRIPOS>MOLECULE
*****
 50 53 0 0 0
SMALL
GASTEIGER

@<TRIPOS>ATOM
     1 C         -0.38963   -1.381916   1.645996 C.3        1 UNL1     0.1889
     2 C         -0.492085   -0.968479   0.153175 C.3        1 UNL1     0.1342
     3 C         -1.925517   -0.894452   -0.394782 C.3        1 UNL1     0.1174
     4 C         -2.849164   -1.952186   0.214472 C.3        1 UNL1     0.1456
     5 C         -2.716643   -2.039986   1.745842 C.3        1 UNL1     0.2326
     6 O         -1.362719   -2.310182   2.101864 O.3        1 UNL1     -0.3076
     7 O         -3.266743   -0.902519   2.434958 O.3        1 UNL1     -0.4605
     8 C         -3.522706   -1.07612   3.783243 C.ar        1 UNL1     0.1310
     9 C         -4.042325   -0.101107   4.641525 C.ar        1 UNL1     0.0226
     10 C         -4.283112   -0.379882   5.992158 C.ar        1 UNL1     0.1343
     11 C         -4.03218   -1.648852   6.512339 C.ar        1 UNL1     0.1007
     12 C         -3.474769   -2.618634   5.674723 C.ar        1 UNL1     0.1389
     13 C         -3.230277   -2.33729   4.317336 C.ar        1 UNL1     0.0229
     14 C         -4.346375   -2.022485   7.910851 C.2        1 UNL1     0.1740
     15 C         -4.221452   -3.481852   8.23672 C.3        1 UNL1     0.0520
     16 C         -2.982895   -4.026993   7.539041 C.3        1 UNL1     0.1322
     17 O         -3.088202   -3.865934   6.107245 O.3        1 UNL1     -0.4828
     18 C         -1.666969   -3.525554   8.138725 C.ar        1 UNL1     -0.0067
     19 C         -1.583497   -3.290384   9.526507 C.ar        1 UNL1     -0.0516
     20 C         -0.410048   -2.786799   10.100427 C.ar        1 UNL1     -0.0198
     21 C         0.681916   -2.508009   9.298107 C.ar        1 UNL1     0.1169
     22 C         0.641545   -2.760567   7.933034 C.ar        1 UNL1     -0.0198
     23 C         -0.525542   -3.281512   7.361562 C.ar        1 UNL1     -0.0516
     24 O         1.794555   -1.982948   9.886957 O.3        1 UNL1     -0.5068
     25 O         -4.761402   -1.224283   8.74698 O.2        1 UNL1     -0.2917
     26 O         -4.789743   0.615206   6.776191 O.3        1 UNL1     -0.5058
     27 O         -0.262302   -0.279895   2.530373 O.3        1 UNL1     -0.3648
     28 O         0.219611   -1.937781   -0.638436 O.3        1 UNL1     -0.3841
     29 O         -2.446543   0.430759   -0.274447 O.3        1 UNL1     -0.3863
     30 O         -2.532239   -3.241641   -0.353467 O.3        1 UNL1     -0.3829
     31 H         0.554692   -1.926242   1.755744 H        1 UNL1     0.0937
     32 H         0.0   0.0   0.0 H        1 UNL1     0.0671
     33 H         -1.882473   -1.0941   -1.474601 H        1 UNL1     0.0649
     34 H         -3.890696   -1.734226   -0.046499 H        1 UNL1     0.0683
     35 H         -3.300031   -2.930558   2.011207 H        1 UNL1     0.1085
     36 H         -4.310748   0.887471   4.28546 H        1 UNL1     0.0691
     37 H         -2.794765   -3.109175   3.686452 H        1 UNL1     0.0691
     38 H         -5.128374   -3.980124   7.877912 H        1 UNL1     0.0385
     39 H         -4.171578   -3.603828   9.324108 H        1 UNL1     0.0385
     40 H         -2.976772   -5.114511   7.693273 H        1 UNL1     0.0789
     41 H         -2.429863   -3.492472   10.176488 H        1 UNL1     0.0623
     42 H         -0.3621   -2.598477   11.170122 H        1 UNL1     0.0654
     43 H         1.496001   -2.560034   7.297737 H        1 UNL1     0.0654
     44 H         -0.518314   -3.476551   6.293502 H        1 UNL1     0.0623
     45 H         2.195134   -2.665672   10.449221 H        1 UNL1     0.2921
     46 H         -5.751588   0.662433   6.657715 H        1 UNL1     0.2922
     47 H         -0.32995   -0.57769   3.448307 H        1 UNL1     0.2126
     48 H         1.169166   -1.810932   -0.448732 H        1 UNL1     0.2101
     49 H         -3.002026   0.496215   0.518615 H        1 UNL1     0.2100
     50 H         -2.004928   -3.739738   0.304982 H        1 UNL1     0.2102
@<TRIPOS>BOND
     1     1     2    1
     2     1     6    1
     3     2     3    1
     4     3     4    1
     5     3    29    1
     6     3    33    1
     7     4     5    1
     8     5     6    1
     9     5     7    1
    10     5    35    1
    11     7     8    1
    12     8     9   ar
    13     8    13   ar
    14     9    10   ar
    15     9    36    1
    16    10    11   ar
    17    10    26    1
    18    11    12   ar
    19    11    14    1
    20    12    13   ar
    21    12    17    1
    22    13    37    1
    23    14    15    1
    24    14    25    2
    25    15    16    1
    26    15    38    1
    27    15    39    1
    28    16    17    1
    29    16    18    1
    30    16    40    1
    31    18    19   ar
    32    18    23   ar
    33    19    20   ar
    34    19    41    1
    35    20    21   ar
    36    20    42    1
    37    21    22   ar
    38    21    24    1
    39    22    23   ar
    40    22    43    1
    41    23    44    1
    42    24    45    1
    43    26    46    1
    44    27    47    1
    45    28    48    1
    46    29    49    1
    47    30    50    1
    48     1    31    1
    49     1    27    1
    50     2    32    1
    51     2    28    1
    52     4    34    1
    53     4    30    1
