@<TRIPOS>MOLECULE
*****
 50 53 0 0 0
SMALL
GASTEIGER

@<TRIPOS>ATOM
     1 C         -0.309448   -1.343751   1.693924 C.3        1 UNL1     0.1889
     2 C         -0.456613   -0.978835   0.192219 C.3        1 UNL1     0.1342
     3 C         -1.902834   -0.967633   -0.326224 C.3        1 UNL1     0.1174
     4 C         -2.778218   -2.035888   0.333815 C.3        1 UNL1     0.1456
     5 C         -2.610931   -2.073355   1.86384 C.3        1 UNL1     0.2326
     6 O         -1.241703   -2.288864   2.197964 O.3        1 UNL1     -0.3076
     7 O         -3.183689   -0.934079   2.531164 O.3        1 UNL1     -0.4605
     8 C         -3.679444   -1.162066   3.802296 C.ar        1 UNL1     0.1310
     9 C         -4.487563   -2.241442   4.175379 C.ar        1 UNL1     0.0226
     10 C         -4.926362   -2.394536   5.495955 C.ar        1 UNL1     0.1343
     11 C         -4.547652   -1.483977   6.481501 C.ar        1 UNL1     0.1007
     12 C         -3.774787   -0.379678   6.112734 C.ar        1 UNL1     0.1389
     13 C         -3.335896   -0.224536   4.7843 C.ar        1 UNL1     0.0229
     14 C         -4.913029   -1.643101   7.908152 C.2        1 UNL1     0.1740
     15 C         -4.238158   -0.699978   8.860316 C.3        1 UNL1     0.0520
     16 C         -4.181174   0.677636   8.214646 C.3        1 UNL1     0.1322
     17 O         -3.435068   0.634034   6.978323 O.3        1 UNL1     -0.4828
     18 C         -5.544428   1.36545   8.108943 C.ar        1 UNL1     -0.0067
     19 C         -5.938512   1.936863   6.881588 C.ar        1 UNL1     -0.0516
     20 C         -7.157867   2.61447   6.76334 C.ar        1 UNL1     -0.0198
     21 C         -7.986794   2.733627   7.86448 C.ar        1 UNL1     0.1169
     22 C         -7.641604   2.152745   9.077846 C.ar        1 UNL1     -0.0198
     23 C         -6.430772   1.45919   9.191533 C.ar        1 UNL1     -0.0516
     24 O         -9.148923   3.433147   7.721197 O.3        1 UNL1     -0.5068
     25 O         -5.653954   -2.531246   8.321328 O.2        1 UNL1     -0.2917
     26 O         -5.713227   -3.468543   5.794178 O.3        1 UNL1     -0.5058
     27 O         -0.200049   -0.212143   2.542618 O.3        1 UNL1     -0.3648
     28 O         0.269939   -1.947966   -0.585993 O.3        1 UNL1     -0.3841
     29 O         -2.4646   0.34307   -0.23344 O.3        1 UNL1     -0.3863
     30 O         -2.430921   -3.330898   -0.202862 O.3        1 UNL1     -0.3829
     31 H         0.654376   -1.853748   1.798926 H        1 UNL1     0.0937
     32 H         0.0   0.0   0.0 H        1 UNL1     0.0671
     33 H         -1.875793   -1.198109   -1.400408 H        1 UNL1     0.0649
     34 H         -3.831585   -1.859618   0.089384 H        1 UNL1     0.0683
     35 H         -3.159001   -2.973941   2.167885 H        1 UNL1     0.1085
     36 H         -4.77012   -3.013455   3.468075 H        1 UNL1     0.0691
     37 H         -2.736089   0.644522   4.522646 H        1 UNL1     0.0691
     38 H         -3.232169   -1.087669   9.053213 H        1 UNL1     0.0385
     39 H         -4.788652   -0.690989   9.807233 H        1 UNL1     0.0385
     40 H         -3.582072   1.319798   8.874362 H        1 UNL1     0.0789
     41 H         -5.30142   1.864954   6.004893 H        1 UNL1     0.0623
     42 H         -7.445088   3.061057   5.814616 H        1 UNL1     0.0654
     43 H         -8.290232   2.227085   9.942522 H        1 UNL1     0.0654
     44 H         -6.197855   1.008809   10.151612 H        1 UNL1     0.0623
     45 H         -8.929291   4.34355   7.464984 H        1 UNL1     0.2921
     46 H         -5.299261   -3.986038   6.502868 H        1 UNL1     0.2922
     47 H         0.538   0.346762   2.261959 H        1 UNL1     0.2126
     48 H         1.205294   -1.881245   -0.313244 H        1 UNL1     0.2101
     49 H         -2.034494   0.932511   -0.873255 H        1 UNL1     0.2100
     50 H         -2.673783   -3.33897   -1.151896 H        1 UNL1     0.2102
@<TRIPOS>BOND
     1     1     2    1
     2     1     6    1
     3     2     3    1
     4     3     4    1
     5     3    29    1
     6     3    33    1
     7     4     5    1
     8     5     6    1
     9     5     7    1
    10     5    35    1
    11     7     8    1
    12     8     9   ar
    13     8    13   ar
    14     9    10   ar
    15     9    36    1
    16    10    11   ar
    17    10    26    1
    18    11    12   ar
    19    11    14    1
    20    12    13   ar
    21    12    17    1
    22    13    37    1
    23    14    15    1
    24    14    25    2
    25    15    16    1
    26    15    38    1
    27    15    39    1
    28    16    17    1
    29    16    18    1
    30    16    40    1
    31    18    19   ar
    32    18    23   ar
    33    19    20   ar
    34    19    41    1
    35    20    21   ar
    36    20    42    1
    37    21    22   ar
    38    21    24    1
    39    22    23   ar
    40    22    43    1
    41    23    44    1
    42    24    45    1
    43    26    46    1
    44    27    47    1
    45    28    48    1
    46    29    49    1
    47    30    50    1
    48     1    31    1
    49     1    27    1
    50     2    32    1
    51     2    28    1
    52     4    34    1
    53     4    30    1
