@<TRIPOS>MOLECULE
*****
 50 53 0 0 0
SMALL
GASTEIGER

@<TRIPOS>ATOM
     1 C         1.11675   -1.638738   -0.915539 C.3        1 UNL1     0.1889
     2 C         0.355861   -0.999999   0.277357 C.3        1 UNL1     0.1342
     3 C         1.169131   -0.89987   1.576985 C.3        1 UNL1     0.1174
     4 C         2.127844   -2.077564   1.769399 C.3        1 UNL1     0.1456
     5 C         2.930017   -2.399837   0.49542 C.3        1 UNL1     0.2326
     6 O         2.039219   -2.66658   -0.585411 O.3        1 UNL1     -0.3076
     7 O         3.924144   -1.408757   0.177944 O.3        1 UNL1     -0.4605
     8 C         3.980272   -1.008525   -1.145005 C.ar        1 UNL1     0.1310
     9 C         4.289018   0.281815   -1.588851 C.ar        1 UNL1     0.0226
     10 C         4.337428   0.58511   -2.95471 C.ar        1 UNL1     0.1343
     11 C         4.101371   -0.401352   -3.911271 C.ar        1 UNL1     0.1007
     12 C         3.751812   -1.683705   -3.479803 C.ar        1 UNL1     0.1389
     13 C         3.700611   -1.987766   -2.106356 C.ar        1 UNL1     0.0229
     14 C         4.221555   -0.156483   -5.367206 C.2        1 UNL1     0.1740
     15 C         4.153476   -1.376195   -6.238537 C.3        1 UNL1     0.0520
     16 C         3.080446   -2.304008   -5.685611 C.3        1 UNL1     0.1322
     17 O         3.394109   -2.701963   -4.332719 O.3        1 UNL1     -0.4828
     18 C         1.654833   -1.781476   -5.878776 C.ar        1 UNL1     -0.0067
     19 C         1.446436   -0.588358   -6.600757 C.ar        1 UNL1     -0.0516
     20 C         0.160183   -0.057707   -6.755433 C.ar        1 UNL1     -0.0198
     21 C         -0.922591   -0.705319   -6.18796 C.ar        1 UNL1     0.1169
     22 C         -0.753309   -1.899734   -5.499805 C.ar        1 UNL1     -0.0198
     23 C         0.530606   -2.440355   -5.360716 C.ar        1 UNL1     -0.0516
     24 O         -2.155446   -0.138693   -6.327264 O.3        1 UNL1     -0.5068
     25 O         4.443447   0.950589   -5.850569 O.2        1 UNL1     -0.2917
     26 O         4.643416   1.863141   -3.321579 O.3        1 UNL1     -0.5058
     27 O         1.688283   -0.685403   -1.79718 O.3        1 UNL1     -0.3648
     28 O         -0.805716   -1.802347   0.559638 O.3        1 UNL1     -0.3841
     29 O         1.823441   0.367206   1.669331 O.3        1 UNL1     -0.3863
     30 O         1.370989   -3.247312   2.149595 O.3        1 UNL1     -0.3829
     31 H         0.366553   -2.154092   -1.525205 H        1 UNL1     0.0937
     32 H         0.0   0.0   0.0 H        1 UNL1     0.0671
     33 H         0.462008   -0.925059   2.417855 H        1 UNL1     0.0649
     34 H         2.822145   -1.864425   2.589715 H        1 UNL1     0.0683
     35 H         3.435294   -3.344403   0.732845 H        1 UNL1     0.1085
     36 H         4.537173   1.078827   -0.896528 H        1 UNL1     0.0691
     37 H         3.424876   -2.993432   -1.796358 H        1 UNL1     0.0691
     38 H         5.138593   -1.854305   -6.21656 H        1 UNL1     0.0385
     39 H         3.944897   -1.069798   -7.269262 H        1 UNL1     0.0385
     40 H         3.129115   -3.236346   -6.264314 H        1 UNL1     0.0789
     41 H         2.280987   -0.056248   -7.048007 H        1 UNL1     0.0623
     42 H         0.013869   0.869329   -7.304258 H        1 UNL1     0.0654
     43 H         -1.596143   -2.423047   -5.064279 H        1 UNL1     0.0654
     44 H         0.624741   -3.380548   -4.825906 H        1 UNL1     0.0623
     45 H         -2.054276   0.703574   -6.799563 H        1 UNL1     0.2921
     46 H         4.084696   2.127609   -4.069444 H        1 UNL1     0.2922
     47 H         1.042727   -0.419348   -2.466756 H        1 UNL1     0.2126
     48 H         -1.050804   -2.243533   -0.276435 H        1 UNL1     0.2101
     49 H         2.266331   0.571836   0.830421 H        1 UNL1     0.2100
     50 H         1.019082   -3.098662   3.051691 H        1 UNL1     0.2102
@<TRIPOS>BOND
     1     1     2    1
     2     1     6    1
     3     2     3    1
     4     3     4    1
     5     3    29    1
     6     3    33    1
     7     4     5    1
     8     5     6    1
     9     5     7    1
    10     5    35    1
    11     7     8    1
    12     8     9   ar
    13     8    13   ar
    14     9    10   ar
    15     9    36    1
    16    10    11   ar
    17    10    26    1
    18    11    12   ar
    19    11    14    1
    20    12    13   ar
    21    12    17    1
    22    13    37    1
    23    14    15    1
    24    14    25    2
    25    15    16    1
    26    15    38    1
    27    15    39    1
    28    16    17    1
    29    16    18    1
    30    16    40    1
    31    18    19   ar
    32    18    23   ar
    33    19    20   ar
    34    19    41    1
    35    20    21   ar
    36    20    42    1
    37    21    22   ar
    38    21    24    1
    39    22    23   ar
    40    22    43    1
    41    23    44    1
    42    24    45    1
    43    26    46    1
    44    27    47    1
    45    28    48    1
    46    29    49    1
    47    30    50    1
    48     1    31    1
    49     1    27    1
    50     2    32    1
    51     2    28    1
    52     4    34    1
    53     4    30    1
