@<TRIPOS>MOLECULE
*****
 50 53 0 0 0
SMALL
GASTEIGER

@<TRIPOS>ATOM
     1 C         -0.293313   -0.080924   2.16292 C.3        1 UNL1     0.1889
     2 C         -0.799844   0.202369   0.723089 C.3        1 UNL1     0.1342
     3 C         -1.329849   1.626831   0.498435 C.3        1 UNL1     0.1174
     4 C         -2.03811   2.1976   1.729575 C.3        1 UNL1     0.1456
     5 C         -1.240381   1.97202   3.026921 C.3        1 UNL1     0.2326
     6 O         -0.990949   0.579992   3.208333 O.3        1 UNL1     -0.3076
     7 O         -0.050192   2.77637   3.115192 O.3        1 UNL1     -0.4605
     8 C         1.06459   2.153198   3.64665 C.ar        1 UNL1     0.1310
     9 C         2.077278   1.534274   2.905909 C.ar        1 UNL1     0.0226
     10 C         3.178215   0.943667   3.537594 C.ar        1 UNL1     0.1343
     11 C         3.305162   0.978582   4.92558 C.ar        1 UNL1     0.1007
     12 C         2.280029   1.557689   5.678255 C.ar        1 UNL1     0.1389
     13 C         1.171847   2.149142   5.043002 C.ar        1 UNL1     0.0229
     14 C         4.487864   0.444433   5.639762 C.2        1 UNL1     0.1740
     15 C         4.561382   0.764352   7.103932 C.3        1 UNL1     0.0520
     16 C         3.16447   0.636516   7.695754 C.3        1 UNL1     0.1322
     17 O         2.249727   1.551847   7.053506 O.3        1 UNL1     -0.4828
     18 C         2.661617   -0.80653   7.782255 C.ar        1 UNL1     -0.0067
     19 C         3.594025   -1.863363   7.826213 C.ar        1 UNL1     -0.0516
     20 C         3.167769   -3.196508   7.857731 C.ar        1 UNL1     -0.0198
     21 C         1.815022   -3.485514   7.838312 C.ar        1 UNL1     0.1169
     22 C         0.872288   -2.465708   7.828968 C.ar        1 UNL1     -0.0198
     23 C         1.298064   -1.132065   7.816087 C.ar        1 UNL1     -0.0516
     24 O         1.43806   -4.796337   7.831702 O.3        1 UNL1     -0.5068
     25 O         5.402461   -0.154209   5.079739 O.2        1 UNL1     -0.2917
     26 O         4.130768   0.355391   2.757749 O.3        1 UNL1     -0.5058
     27 O         1.111946   0.053204   2.304491 O.3        1 UNL1     -0.3648
     28 O         -1.877558   -0.706627   0.431604 O.3        1 UNL1     -0.3841
     29 O         -0.294443   2.481866   0.009577 O.3        1 UNL1     -0.3863
     30 O         -3.331802   1.570183   1.865215 O.3        1 UNL1     -0.3829
     31 H         -0.484   -1.141794   2.358554 H        1 UNL1     0.0937
     32 H         0.0   0.0   0.0 H        1 UNL1     0.0671
     33 H         -2.076874   1.583636   -0.30643 H        1 UNL1     0.0649
     34 H         -2.2147   3.270563   1.595536 H        1 UNL1     0.0683
     35 H         -1.933762   2.277868   3.820369 H        1 UNL1     0.1085
     36 H         2.064871   1.522828   1.82155 H        1 UNL1     0.0691
     37 H         0.386682   2.592478   5.651657 H        1 UNL1     0.0691
     38 H         4.939198   1.787782   7.200746 H        1 UNL1     0.0385
     39 H         5.277665   0.088518   7.583479 H        1 UNL1     0.0385
     40 H         3.219832   0.98774   8.735031 H        1 UNL1     0.0789
     41 H         4.66148   -1.663005   7.833039 H        1 UNL1     0.0623
     42 H         3.89666   -4.002893   7.879492 H        1 UNL1     0.0654
     43 H         -0.189675   -2.680518   7.828809 H        1 UNL1     0.0654
     44 H         0.534083   -0.360595   7.819662 H        1 UNL1     0.0623
     45 H         1.764023   -5.213306   8.645706 H        1 UNL1     0.2921
     46 H         4.833644   -0.004344   3.321637 H        1 UNL1     0.2922
     47 H         1.514915   0.271885   1.452637 H        1 UNL1     0.2126
     48 H         -1.777871   -0.967732   -0.504142 H        1 UNL1     0.2101
     49 H         -0.54043   2.833685   -0.860772 H        1 UNL1     0.2100
     50 H         -3.415543   0.896209   1.159199 H        1 UNL1     0.2102
@<TRIPOS>BOND
     1     1     2    1
     2     1     6    1
     3     2     3    1
     4     3     4    1
     5     3    29    1
     6     3    33    1
     7     4     5    1
     8     5     6    1
     9     5     7    1
    10     5    35    1
    11     7     8    1
    12     8     9   ar
    13     8    13   ar
    14     9    10   ar
    15     9    36    1
    16    10    11   ar
    17    10    26    1
    18    11    12   ar
    19    11    14    1
    20    12    13   ar
    21    12    17    1
    22    13    37    1
    23    14    15    1
    24    14    25    2
    25    15    16    1
    26    15    38    1
    27    15    39    1
    28    16    17    1
    29    16    18    1
    30    16    40    1
    31    18    19   ar
    32    18    23   ar
    33    19    20   ar
    34    19    41    1
    35    20    21   ar
    36    20    42    1
    37    21    22   ar
    38    21    24    1
    39    22    23   ar
    40    22    43    1
    41    23    44    1
    42    24    45    1
    43    26    46    1
    44    27    47    1
    45    28    48    1
    46    29    49    1
    47    30    50    1
    48     1    31    1
    49     1    27    1
    50     2    32    1
    51     2    28    1
    52     4    34    1
    53     4    30    1
