@<TRIPOS>MOLECULE
*****
 50 53 0 0 0
SMALL
GASTEIGER

@<TRIPOS>ATOM
     1 C         -0.330965   -1.32817   1.702126 C.3        1 UNL1     0.1889
     2 C         -0.460969   -0.976084   0.195781 C.3        1 UNL1     0.1342
     3 C         -1.901449   -0.966161   -0.338431 C.3        1 UNL1     0.1174
     4 C         -2.78645   -2.026622   0.321354 C.3        1 UNL1     0.1456
     5 C         -2.635863   -2.05107   1.853375 C.3        1 UNL1     0.2326
     6 O         -1.270851   -2.266731   2.204232 O.3        1 UNL1     -0.3076
     7 O         -3.21315   -0.904709   2.504463 O.3        1 UNL1     -0.4605
     8 C         -3.723203   -1.120441   3.772073 C.ar        1 UNL1     0.1310
     9 C         -4.537855   -2.194686   4.145756 C.ar        1 UNL1     0.0226
     10 C         -4.991315   -2.335225   5.46277 C.ar        1 UNL1     0.1343
     11 C         -4.621184   -1.416929   6.444389 C.ar        1 UNL1     0.1007
     12 C         -3.841772   -0.317645   6.07442 C.ar        1 UNL1     0.1389
     13 C         -3.38813   -0.175127   4.749532 C.ar        1 UNL1     0.0229
     14 C         -5.002392   -1.562734   7.868319 C.2        1 UNL1     0.1740
     15 C         -4.335679   -0.612835   8.819494 C.3        1 UNL1     0.0520
     16 C         -4.268457   0.758943   8.162481 C.3        1 UNL1     0.1322
     17 O         -3.509086   0.702838   6.934769 O.3        1 UNL1     -0.4828
     18 C         -5.628866   1.448875   8.035964 C.ar        1 UNL1     -0.0067
     19 C         -6.008266   2.010408   6.799457 C.ar        1 UNL1     -0.0516
     20 C         -7.224672   2.6897   6.66205 C.ar        1 UNL1     -0.0198
     21 C         -8.065216   2.82036   7.753032 C.ar        1 UNL1     0.1169
     22 C         -7.734576   2.249345   8.975103 C.ar        1 UNL1     -0.0198
     23 C         -6.526682   1.554085   9.107996 C.ar        1 UNL1     -0.0516
     24 O         -9.224075   3.521216   7.591024 O.3        1 UNL1     -0.5068
     25 O         -5.74984   -2.445556   8.281153 O.2        1 UNL1     -0.2917
     26 O         -5.78389   -3.404804   5.761786 O.3        1 UNL1     -0.5058
     27 O         -0.228123   -0.189425   2.542049 O.3        1 UNL1     -0.3648
     28 O         0.271707   -1.953624   -0.565998 O.3        1 UNL1     -0.3841
     29 O         -2.46111   0.346566   -0.263204 O.3        1 UNL1     -0.3863
     30 O         -2.436392   -3.32706   -0.200192 O.3        1 UNL1     -0.3829
     31 H         0.630463   -1.839399   1.822047 H        1 UNL1     0.0937
     32 H         0.0   0.0   0.0 H        1 UNL1     0.0671
     33 H         -1.863296   -1.206092   -1.410204 H        1 UNL1     0.0649
     34 H         -3.836686   -1.850125   0.063957 H        1 UNL1     0.0683
     35 H         -3.189313   -2.947723   2.159294 H        1 UNL1     0.1085
     36 H         -4.814533   -2.972223   3.442189 H        1 UNL1     0.0691
     37 H         -2.78348   0.690253   4.486838 H        1 UNL1     0.0691
     38 H         -3.332756   -1.001088   9.026692 H        1 UNL1     0.0385
     39 H         -4.896393   -0.594316   9.760257 H        1 UNL1     0.0385
     40 H         -3.675043   1.405503   8.82304 H        1 UNL1     0.0789
     41 H         -5.36187   1.929392   5.930401 H        1 UNL1     0.0623
     42 H         -7.500532   3.128611   5.706398 H        1 UNL1     0.0654
     43 H         -8.392372   2.332713   9.831996 H        1 UNL1     0.0654
     44 H         -6.305254   1.111603   10.074445 H        1 UNL1     0.0623
     45 H         -8.99955   4.428748   7.328936 H        1 UNL1     0.2921
     46 H         -5.378854   -3.917007   6.479425 H        1 UNL1     0.2922
     47 H         0.514237   0.365337   2.26456 H        1 UNL1     0.2126
     48 H         1.204201   -1.886627   -0.283689 H        1 UNL1     0.2101
     49 H         -2.022704   0.929413   -0.903426 H        1 UNL1     0.2100
     50 H         -2.668961   -3.342892   -1.151704 H        1 UNL1     0.2102
@<TRIPOS>BOND
     1     1     2    1
     2     1     6    1
     3     2     3    1
     4     3     4    1
     5     3    29    1
     6     3    33    1
     7     4     5    1
     8     5     6    1
     9     5     7    1
    10     5    35    1
    11     7     8    1
    12     8     9   ar
    13     8    13   ar
    14     9    10   ar
    15     9    36    1
    16    10    11   ar
    17    10    26    1
    18    11    12   ar
    19    11    14    1
    20    12    13   ar
    21    12    17    1
    22    13    37    1
    23    14    15    1
    24    14    25    2
    25    15    16    1
    26    15    38    1
    27    15    39    1
    28    16    17    1
    29    16    18    1
    30    16    40    1
    31    18    19   ar
    32    18    23   ar
    33    19    20   ar
    34    19    41    1
    35    20    21   ar
    36    20    42    1
    37    21    22   ar
    38    21    24    1
    39    22    23   ar
    40    22    43    1
    41    23    44    1
    42    24    45    1
    43    26    46    1
    44    27    47    1
    45    28    48    1
    46    29    49    1
    47    30    50    1
    48     1    31    1
    49     1    27    1
    50     2    32    1
    51     2    28    1
    52     4    34    1
    53     4    30    1
