@<TRIPOS>MOLECULE
*****
 50 53 0 0 0
SMALL
GASTEIGER

@<TRIPOS>ATOM
     1 C         -0.361164   -1.341913   1.685121 C.3        1 UNL1     0.1889
     2 C         -0.47789   -0.970536   0.182326 C.3        1 UNL1     0.1342
     3 C         -1.915342   -0.930792   -0.358614 C.3        1 UNL1     0.1174
     4 C         -2.82089   -1.984011   0.284682 C.3        1 UNL1     0.1456
     5 C         -2.678336   -2.028449   1.817023 C.3        1 UNL1     0.2326
     6 O         -1.318806   -2.270552   2.171893 O.3        1 UNL1     -0.3076
     7 O         -3.239963   -0.880257   2.478499 O.3        1 UNL1     -0.4605
     8 C         -3.760201   -1.102137   3.740897 C.ar        1 UNL1     0.1310
     9 C         -4.594514   -2.166932   4.097877 C.ar        1 UNL1     0.0226
     10 C         -5.057182   -2.315148   5.410841 C.ar        1 UNL1     0.1343
     11 C         -4.677059   -1.414569   6.404975 C.ar        1 UNL1     0.1007
     12 C         -3.877586   -0.324197   6.051822 C.ar        1 UNL1     0.1389
     13 C         -3.414661   -0.173914   4.73101 C.ar        1 UNL1     0.0229
     14 C         -5.068138   -1.570492   7.825151 C.2        1 UNL1     0.1740
     15 C         -4.390793   -0.642898   8.790719 C.3        1 UNL1     0.0520
     16 C         -4.29737   0.735088   8.150106 C.3        1 UNL1     0.1322
     17 O         -3.532567   0.680576   6.925698 O.3        1 UNL1     -0.4828
     18 C         -5.645465   1.448983   8.024737 C.ar        1 UNL1     -0.0067
     19 C         -6.007763   2.033461   6.793746 C.ar        1 UNL1     -0.0516
     20 C         -7.211983   2.734495   6.658222 C.ar        1 UNL1     -0.0198
     21 C         -8.05718   2.864117   7.745727 C.ar        1 UNL1     0.1169
     22 C         -7.743699   2.271159   8.961856 C.ar        1 UNL1     -0.0198
     23 C         -6.548222   1.554362   9.092594 C.ar        1 UNL1     -0.0516
     24 O         -9.203353   3.586098   7.586253 O.3        1 UNL1     -0.5068
     25 O         -5.832289   -2.445474   8.223854 O.2        1 UNL1     -0.2917
     26 O         -5.86895   -3.374781   5.693325 O.3        1 UNL1     -0.5058
     27 O         -0.243824   -0.214693   2.53858 O.3        1 UNL1     -0.3648
     28 O         0.242422   -1.951235   -0.587147 O.3        1 UNL1     -0.3841
     29 O         -2.453754   0.390027   -0.270953 O.3        1 UNL1     -0.3863
     30 O         -2.489632   -3.283989   -0.250122 O.3        1 UNL1     -0.3829
     31 H         0.591138   -1.87024   1.803741 H        1 UNL1     0.0937
     32 H         0.0   0.0   0.0 H        1 UNL1     0.0671
     33 H         -1.875808   -1.15905   -1.432883 H        1 UNL1     0.0649
     34 H         -3.866798   -1.787315   0.024319 H        1 UNL1     0.0683
     35 H         -3.247937   -2.919306   2.10995 H        1 UNL1     0.1085
     36 H         -4.880331   -2.931556   3.383889 H        1 UNL1     0.0691
     37 H         -2.794368   0.684269   4.481506 H        1 UNL1     0.0691
     38 H         -3.395552   -1.050161   8.998468 H        1 UNL1     0.0385
     39 H         -4.956077   -0.625947   9.728773 H        1 UNL1     0.0385
     40 H         -3.696809   1.36399   8.821171 H        1 UNL1     0.0789
     41 H         -5.357279   1.953648   5.927633 H        1 UNL1     0.0623
     42 H         -7.474548   3.190853   5.707007 H        1 UNL1     0.0654
     43 H         -8.405466   2.353677   9.815768 H        1 UNL1     0.0654
     44 H         -6.340208   1.095183   10.054223 H        1 UNL1     0.0623
     45 H         -8.962306   4.493565   7.339037 H        1 UNL1     0.2921
     46 H         -5.476894   -3.901203   6.407877 H        1 UNL1     0.2922
     47 H         0.508805   0.330999   2.270942 H        1 UNL1     0.2126
     48 H         1.174606   -1.902338   -0.300139 H        1 UNL1     0.2101
     49 H         -2.002847   0.972797   -0.902504 H        1 UNL1     0.2100
     50 H         -2.7177   -3.285111   -1.202853 H        1 UNL1     0.2102
@<TRIPOS>BOND
     1     1     2    1
     2     1     6    1
     3     2     3    1
     4     3     4    1
     5     3    29    1
     6     3    33    1
     7     4     5    1
     8     5     6    1
     9     5     7    1
    10     5    35    1
    11     7     8    1
    12     8     9   ar
    13     8    13   ar
    14     9    10   ar
    15     9    36    1
    16    10    11   ar
    17    10    26    1
    18    11    12   ar
    19    11    14    1
    20    12    13   ar
    21    12    17    1
    22    13    37    1
    23    14    15    1
    24    14    25    2
    25    15    16    1
    26    15    38    1
    27    15    39    1
    28    16    17    1
    29    16    18    1
    30    16    40    1
    31    18    19   ar
    32    18    23   ar
    33    19    20   ar
    34    19    41    1
    35    20    21   ar
    36    20    42    1
    37    21    22   ar
    38    21    24    1
    39    22    23   ar
    40    22    43    1
    41    23    44    1
    42    24    45    1
    43    26    46    1
    44    27    47    1
    45    28    48    1
    46    29    49    1
    47    30    50    1
    48     1    31    1
    49     1    27    1
    50     2    32    1
    51     2    28    1
    52     4    34    1
    53     4    30    1
