@<TRIPOS>MOLECULE
*****
 50 53 0 0 0
SMALL
GASTEIGER

@<TRIPOS>ATOM
     1 C         0.988737   1.945021   -0.100474 C.3        1 UNL1     0.1889
     2 C         0.834265   0.517496   0.489654 C.3        1 UNL1     0.1342
     3 C         0.628511   0.471541   2.011501 C.3        1 UNL1     0.1174
     4 C         1.39953   1.569772   2.748072 C.3        1 UNL1     0.1456
     5 C         1.235819   2.950625   2.087157 C.3        1 UNL1     0.2326
     6 O         1.653153   2.890157   0.725157 O.3        1 UNL1     -0.3076
     7 O         -0.078857   3.512643   2.251731 O.3        1 UNL1     -0.4605
     8 C         -0.134208   4.883254   2.430303 C.ar        1 UNL1     0.1310
     9 C         0.957759   5.706864   2.724542 C.ar        1 UNL1     0.0226
     10 C         0.802131   7.090489   2.87036 C.ar        1 UNL1     0.1343
     11 C         -0.446419   7.687603   2.701785 C.ar        1 UNL1     0.1007
     12 C         -1.551547   6.870757   2.448335 C.ar        1 UNL1     0.1389
     13 C         -1.395257   5.479254   2.304375 C.ar        1 UNL1     0.0229
     14 C         -0.652852   9.153192   2.761698 C.2        1 UNL1     0.1740
     15 C         -2.008956   9.635729   2.337798 C.3        1 UNL1     0.0520
     16 C         -3.055056   8.673761   2.88392 C.3        1 UNL1     0.1322
     17 O         -2.842372   7.339922   2.371371 O.3        1 UNL1     -0.4828
     18 C         -3.228572   8.749523   4.402761 C.ar        1 UNL1     -0.0067
     19 C         -2.239415   8.195755   5.241285 C.ar        1 UNL1     -0.0516
     20 C         -2.389677   8.20591   6.633148 C.ar        1 UNL1     -0.0198
     21 C         -3.525372   8.759009   7.197156 C.ar        1 UNL1     0.1169
     22 C         -4.501286   9.341928   6.399259 C.ar        1 UNL1     -0.0198
     23 C         -4.342616   9.348398   5.008275 C.ar        1 UNL1     -0.0516
     24 O         -3.654592   8.716858   8.554331 O.3        1 UNL1     -0.5068
     25 O         0.234322   9.949409   3.057406 O.2        1 UNL1     -0.2917
     26 O         1.90698   7.837411   3.158461 O.3        1 UNL1     -0.5058
     27 O         -0.21701   2.470412   -0.632381 O.3        1 UNL1     -0.3648
     28 O         2.029727   -0.229163   0.196263 O.3        1 UNL1     -0.3841
     29 O         -0.763409   0.460478   2.334869 O.3        1 UNL1     -0.3863
     30 O         2.802899   1.229584   2.770792 O.3        1 UNL1     -0.3829
     31 H         1.649848   1.854515   -0.969277 H        1 UNL1     0.0937
     32 H         0.0   0.0   0.0 H        1 UNL1     0.0671
     33 H         1.019896   -0.489277   2.373948 H        1 UNL1     0.0649
     34 H         1.066395   1.625891   3.790316 H        1 UNL1     0.0683
     35 H         1.959943   3.583954   2.614811 H        1 UNL1     0.1085
     36 H         1.96346   5.310679   2.812424 H        1 UNL1     0.0691
     37 H         -2.271628   4.865237   2.108287 H        1 UNL1     0.0691
     38 H         -2.025506   9.657226   1.242905 H        1 UNL1     0.0385
     39 H         -2.156245   10.658108   2.702248 H        1 UNL1     0.0385
     40 H         -4.024057   8.977499   2.465231 H        1 UNL1     0.0789
     41 H         -1.343065   7.747463   4.822667 H        1 UNL1     0.0623
     42 H         -1.62546   7.765109   7.268505 H        1 UNL1     0.0654
     43 H         -5.387495   9.791266   6.831277 H        1 UNL1     0.0654
     44 H         -5.119771   9.821831   4.416045 H        1 UNL1     0.0623
     45 H         -4.347199   8.073747   8.776639 H        1 UNL1     0.2921
     46 H         1.677772   8.779678   3.126687 H        1 UNL1     0.2922
     47 H         -0.58327   1.865569   -1.292592 H        1 UNL1     0.2126
     48 H         2.780032   0.382896   0.32338 H        1 UNL1     0.2101
     49 H         -0.879478   0.327104   3.289087 H        1 UNL1     0.2100
     50 H         3.003051   0.83362   3.644213 H        1 UNL1     0.2102
@<TRIPOS>BOND
     1     1     2    1
     2     1     6    1
     3     2     3    1
     4     3     4    1
     5     3    29    1
     6     3    33    1
     7     4     5    1
     8     5     6    1
     9     5     7    1
    10     5    35    1
    11     7     8    1
    12     8     9   ar
    13     8    13   ar
    14     9    10   ar
    15     9    36    1
    16    10    11   ar
    17    10    26    1
    18    11    12   ar
    19    11    14    1
    20    12    13   ar
    21    12    17    1
    22    13    37    1
    23    14    15    1
    24    14    25    2
    25    15    16    1
    26    15    38    1
    27    15    39    1
    28    16    17    1
    29    16    18    1
    30    16    40    1
    31    18    19   ar
    32    18    23   ar
    33    19    20   ar
    34    19    41    1
    35    20    21   ar
    36    20    42    1
    37    21    22   ar
    38    21    24    1
    39    22    23   ar
    40    22    43    1
    41    23    44    1
    42    24    45    1
    43    26    46    1
    44    27    47    1
    45    28    48    1
    46    29    49    1
    47    30    50    1
    48     1    31    1
    49     1    27    1
    50     2    32    1
    51     2    28    1
    52     4    34    1
    53     4    30    1
