@<TRIPOS>MOLECULE
*****
 50 53 0 0 0
SMALL
GASTEIGER

@<TRIPOS>ATOM
     1 C         -1.149428   -1.439668   1.173447 C.3        1 UNL1     0.1889
     2 C         -0.795842   -0.736901   -0.164849 C.3        1 UNL1     0.1342
     3 C         -1.980309   -0.048209   -0.85998 C.3        1 UNL1     0.1174
     4 C         -3.299959   -0.799621   -0.667567 C.3        1 UNL1     0.1456
     5 C         -3.530116   -1.223356   0.794568 C.3        1 UNL1     0.2326
     6 O         -2.440961   -2.025468   1.245375 O.3        1 UNL1     -0.3076
     7 O         -3.821703   -0.120371   1.671906 O.3        1 UNL1     -0.4605
     8 C         -3.53059   1.139167   1.179618 C.ar        1 UNL1     0.1310
     9 C         -3.085135   1.419544   -0.11663 C.ar        1 UNL1     0.0226
     10 C         -2.833   2.734123   -0.526767 C.ar        1 UNL1     0.1343
     11 C         -3.043225   3.803368   0.342924 C.ar        1 UNL1     0.1007
     12 C         -3.448571   3.532683   1.652583 C.ar        1 UNL1     0.1389
     13 C         -3.699486   2.210586   2.065538 C.ar        1 UNL1     0.0229
     14 C         -2.873213   5.217558   -0.063668 C.2        1 UNL1     0.1740
     15 C         -3.35505   6.23946   0.923803 C.3        1 UNL1     0.0520
     16 C         -2.974101   5.774765   2.322693 C.3        1 UNL1     0.1322
     17 O         -3.581977   4.498966   2.622515 O.3        1 UNL1     -0.4828
     18 C         -1.471789   5.844158   2.60724 C.ar        1 UNL1     -0.0067
     19 C         -1.003689   5.613815   3.917217 C.ar        1 UNL1     -0.0516
     20 C         0.359   5.716161   4.221462 C.ar        1 UNL1     -0.0198
     21 C         1.260735   6.054604   3.228408 C.ar        1 UNL1     0.1169
     22 C         0.834403   6.254622   1.921858 C.ar        1 UNL1     -0.0198
     23 C         -0.525915   6.134246   1.613476 C.ar        1 UNL1     -0.0516
     24 O         2.575022   6.182085   3.570167 O.3        1 UNL1     -0.5068
     25 O         -2.44409   5.558104   -1.162925 O.2        1 UNL1     -0.2917
     26 O         -2.399267   2.93978   -1.803938 O.3        1 UNL1     -0.5058
     27 O         -0.867891   -0.650263   2.318158 O.3        1 UNL1     -0.3648
     28 O         -0.27963   -1.724635   -1.076228 O.3        1 UNL1     -0.3841
     29 O         -2.06462   1.325647   -0.475867 O.3        1 UNL1     -0.3863
     30 O         -3.297923   -1.980972   -1.498286 O.3        1 UNL1     -0.3829
     31 H         -0.473869   -2.297229   1.264481 H        1 UNL1     0.0937
     32 H         0.0   0.0   0.0 H        1 UNL1     0.0671
     33 H         -1.775322   -0.037265   -1.9396 H        1 UNL1     0.0649
     34 H         -4.137324   -0.175847   -0.999421 H        1 UNL1     0.0683
     35 H         -4.409245   -1.877997   0.744998 H        1 UNL1     0.1085
     36 H         -2.956096   0.637542   -0.856861 H        1 UNL1     0.0691
     37 H         -4.013157   2.026351   3.0908 H        1 UNL1     0.0691
     38 H         -4.442158   6.317437   0.815901 H        1 UNL1     0.0385
     39 H         -2.91616   7.212152   0.676771 H        1 UNL1     0.0385
     40 H         -3.43696   6.473123   3.033029 H        1 UNL1     0.0789
     41 H         -1.692487   5.355736   4.716344 H        1 UNL1     0.0623
     42 H         0.706102   5.54784   5.237927 H        1 UNL1     0.0654
     43 H         1.533951   6.505326   1.133384 H        1 UNL1     0.0654
     44 H         -0.82237   6.286926   0.580205 H        1 UNL1     0.0623
     45 H         2.630305   6.322042   4.529371 H        1 UNL1     0.2921
     46 H         -2.275437   3.890267   -1.954444 H        1 UNL1     0.2922
     47 H         -1.235689   -1.066156   3.110381 H        1 UNL1     0.2126
     48 H         0.641036   -1.467102   -1.275686 H        1 UNL1     0.2101
     49 H         -1.964274   1.893338   -1.256541 H        1 UNL1     0.2100
     50 H         -2.370324   -2.281569   -1.592703 H        1 UNL1     0.2102
@<TRIPOS>BOND
     1     1     2    1
     2     1     6    1
     3     2     3    1
     4     3     4    1
     5     3    29    1
     6     3    33    1
     7     4     5    1
     8     5     6    1
     9     5     7    1
    10     5    35    1
    11     7     8    1
    12     8     9   ar
    13     8    13   ar
    14     9    10   ar
    15     9    36    1
    16    10    11   ar
    17    10    26    1
    18    11    12   ar
    19    11    14    1
    20    12    13   ar
    21    12    17    1
    22    13    37    1
    23    14    15    1
    24    14    25    2
    25    15    16    1
    26    15    38    1
    27    15    39    1
    28    16    17    1
    29    16    18    1
    30    16    40    1
    31    18    19   ar
    32    18    23   ar
    33    19    20   ar
    34    19    41    1
    35    20    21   ar
    36    20    42    1
    37    21    22   ar
    38    21    24    1
    39    22    23   ar
    40    22    43    1
    41    23    44    1
    42    24    45    1
    43    26    46    1
    44    27    47    1
    45    28    48    1
    46    29    49    1
    47    30    50    1
    48     1    31    1
    49     1    27    1
    50     2    32    1
    51     2    28    1
    52     4    34    1
    53     4    30    1
