@<TRIPOS>MOLECULE
*****
 50 53 0 0 0
SMALL
GASTEIGER

@<TRIPOS>ATOM
     1 C         -0.32323   -1.365244   1.674048 C.3        1 UNL1     0.1889
     2 C         -0.460446   -0.980003   0.176483 C.3        1 UNL1     0.1342
     3 C         -1.903519   -0.957815   -0.350312 C.3        1 UNL1     0.1174
     4 C         -2.785759   -2.032253   0.290276 C.3        1 UNL1     0.1456
     5 C         -2.627687   -2.09051   1.82063 C.3        1 UNL1     0.2326
     6 O         -1.261071   -2.31432   2.159953 O.3        1 UNL1     -0.3076
     7 O         -3.201263   -0.958577   2.499643 O.3        1 UNL1     -0.4605
     8 C         -3.823039   -1.22649   3.705937 C.ar        1 UNL1     0.1310
     9 C         -4.715623   -2.277697   3.941642 C.ar        1 UNL1     0.0226
     10 C         -5.281535   -2.476763   5.206561 C.ar        1 UNL1     0.1343
     11 C         -4.94983   -1.642862   6.273529 C.ar        1 UNL1     0.1007
     12 C         -4.091443   -0.565077   6.040425 C.ar        1 UNL1     0.1389
     13 C         -3.524611   -0.363553   4.767822 C.ar        1 UNL1     0.0229
     14 C         -5.452816   -1.857715   7.650117 C.2        1 UNL1     0.1740
     15 C         -4.821868   -1.00603   8.712232 C.3        1 UNL1     0.0520
     16 C         -4.636041   0.39893   8.155893 C.3        1 UNL1     0.1322
     17 O         -3.782235   0.380273   6.990672 O.3        1 UNL1     -0.4828
     18 C         -5.947234   1.166193   7.969336 C.ar        1 UNL1     -0.0067
     19 C         -5.919241   2.458687   7.406407 C.ar        1 UNL1     -0.0516
     20 C         -7.094408   3.20641   7.265495 C.ar        1 UNL1     -0.0198
     21 C         -8.300125   2.676952   7.689459 C.ar        1 UNL1     0.1169
     22 C         -8.364597   1.393806   8.216923 C.ar        1 UNL1     -0.0198
     23 C         -7.19223   0.638671   8.340953 C.ar        1 UNL1     -0.0516
     24 O         -9.418122   3.449269   7.571098 O.3        1 UNL1     -0.5068
     25 O         -6.272616   -2.72415   7.942868 O.2        1 UNL1     -0.2917
     26 O         -6.145808   -3.519783   5.370045 O.3        1 UNL1     -0.5058
     27 O         -0.215765   -0.245321   2.538345 O.3        1 UNL1     -0.3648
     28 O         0.268051   -1.94077   -0.610235 O.3        1 UNL1     -0.3841
     29 O         -2.462212   0.353129   -0.243433 O.3        1 UNL1     -0.3863
     30 O         -2.438845   -3.321002   -0.26151 O.3        1 UNL1     -0.3829
     31 H         0.638542   -1.879322   1.777959 H        1 UNL1     0.0937
     32 H         0.0   0.0   0.0 H        1 UNL1     0.0671
     33 H         -1.87072   -1.174081   -1.427286 H        1 UNL1     0.0649
     34 H         -3.837162   -1.849766   0.041983 H        1 UNL1     0.0683
     35 H         -3.180038   -2.993496   2.109426 H        1 UNL1     0.1085
     36 H         -4.970375   -2.993741   3.168013 H        1 UNL1     0.0691
     37 H         -2.860088   0.483576   4.612017 H        1 UNL1     0.0691
     38 H         -3.858839   -1.458872   8.971147 H        1 UNL1     0.0385
     39 H         -5.4562   -1.01724   9.605134 H        1 UNL1     0.0385
     40 H         -4.068671   0.970454   8.902867 H        1 UNL1     0.0789
     41 H         -4.98416   2.90027   7.074324 H        1 UNL1     0.0623
     42 H         -7.058091   4.206594   6.840848 H        1 UNL1     0.0654
     43 H         -9.30569   0.963655   8.538208 H        1 UNL1     0.0654
     44 H         -7.281072   -0.364148   8.747533 H        1 UNL1     0.0623
     45 H         -9.304499   4.239969   8.123004 H        1 UNL1     0.2921
     46 H         -5.83891   -4.0832   6.09791 H        1 UNL1     0.2922
     47 H         0.512443   0.326035   2.257051 H        1 UNL1     0.2126
     48 H         1.208246   -1.850128   -0.362144 H        1 UNL1     0.2101
     49 H         -2.03285   0.947669   -0.879015 H        1 UNL1     0.2100
     50 H         -2.681285   -3.317744   -1.21068 H        1 UNL1     0.2102
@<TRIPOS>BOND
     1     1     2    1
     2     1     6    1
     3     2     3    1
     4     3     4    1
     5     3    29    1
     6     3    33    1
     7     4     5    1
     8     5     6    1
     9     5     7    1
    10     5    35    1
    11     7     8    1
    12     8     9   ar
    13     8    13   ar
    14     9    10   ar
    15     9    36    1
    16    10    11   ar
    17    10    26    1
    18    11    12   ar
    19    11    14    1
    20    12    13   ar
    21    12    17    1
    22    13    37    1
    23    14    15    1
    24    14    25    2
    25    15    16    1
    26    15    38    1
    27    15    39    1
    28    16    17    1
    29    16    18    1
    30    16    40    1
    31    18    19   ar
    32    18    23   ar
    33    19    20   ar
    34    19    41    1
    35    20    21   ar
    36    20    42    1
    37    21    22   ar
    38    21    24    1
    39    22    23   ar
    40    22    43    1
    41    23    44    1
    42    24    45    1
    43    26    46    1
    44    27    47    1
    45    28    48    1
    46    29    49    1
    47    30    50    1
    48     1    31    1
    49     1    27    1
    50     2    32    1
    51     2    28    1
    52     4    34    1
    53     4    30    1
