@<TRIPOS>MOLECULE
*****
 50 53 0 0 0
SMALL
GASTEIGER

@<TRIPOS>ATOM
     1 C         -0.331321   -1.327667   1.702449 C.3        1 UNL1     0.1889
     2 C         -0.46218   -0.975424   0.196215 C.3        1 UNL1     0.1342
     3 C         -1.903126   -0.963462   -0.3367 C.3        1 UNL1     0.1174
     4 C         -2.789039   -2.022651   0.323901 C.3        1 UNL1     0.1456
     5 C         -2.637107   -2.047286   1.855787 C.3        1 UNL1     0.2326
     6 O         -1.272088   -2.264882   2.205419 O.3        1 UNL1     -0.3076
     7 O         -3.212178   -0.900093   2.507372 O.3        1 UNL1     -0.4605
     8 C         -3.721395   -1.115076   3.775445 C.ar        1 UNL1     0.1310
     9 C         -4.537237   -2.188155   4.149883 C.ar        1 UNL1     0.0226
     10 C         -4.989711   -2.328025   5.467307 C.ar        1 UNL1     0.1343
     11 C         -4.61739   -1.410238   6.448575 C.ar        1 UNL1     0.1007
     12 C         -3.836749   -0.312071   6.077882 C.ar        1 UNL1     0.1389
     13 C         -3.384098   -0.170222   4.752584 C.ar        1 UNL1     0.0229
     14 C         -4.997523   -1.555476   7.87285 C.2        1 UNL1     0.1740
     15 C         -4.328603   -0.606508   8.823405 C.3        1 UNL1     0.0520
     16 C         -4.260023   0.76516   8.166306 C.3        1 UNL1     0.1322
     17 O         -3.501837   0.707953   6.937912 O.3        1 UNL1     -0.4828
     18 C         -5.619562   1.457024   8.041001 C.ar        1 UNL1     -0.0067
     19 C         -5.999276   2.019074   6.804825 C.ar        1 UNL1     -0.0516
     20 C         -7.214838   2.700093   6.6685 C.ar        1 UNL1     -0.0198
     21 C         -8.054213   2.831968   7.760236 C.ar        1 UNL1     0.1169
     22 C         -7.723285   2.260506   8.98202 C.ar        1 UNL1     -0.0198
     23 C         -6.516262   1.563531   9.113839 C.ar        1 UNL1     -0.0516
     24 O         -9.212219   3.534468   7.599258 O.3        1 UNL1     -0.5068
     25 O         -5.745854   -2.437226   8.286374 O.2        1 UNL1     -0.2917
     26 O         -5.783537   -3.39647   5.767057 O.3        1 UNL1     -0.5058
     27 O         -0.226104   -0.189054   2.542257 O.3        1 UNL1     -0.3648
     28 O         0.268418   -1.954019   -0.566204 O.3        1 UNL1     -0.3841
     29 O         -2.46085   0.350062   -0.260994 O.3        1 UNL1     -0.3863
     30 O         -2.441301   -3.323595   -0.197934 O.3        1 UNL1     -0.3829
     31 H         0.629486   -1.840261   1.821514 H        1 UNL1     0.0937
     32 H         0.0   0.0   0.0 H        1 UNL1     0.0671
     33 H         -1.866279   -1.203466   -1.408503 H        1 UNL1     0.0649
     34 H         -3.839255   -1.844665   0.067447 H        1 UNL1     0.0683
     35 H         -3.191557   -2.943144   2.162221 H        1 UNL1     0.1085
     36 H         -4.815654   -2.96531   3.44658 H        1 UNL1     0.0691
     37 H         -2.778454   0.694292   4.489329 H        1 UNL1     0.0691
     38 H         -3.326048   -0.996184   9.029709 H        1 UNL1     0.0385
     39 H         -4.888444   -0.587175   9.764672 H        1 UNL1     0.0385
     40 H         -3.665094   1.410888   8.826318 H        1 UNL1     0.0789
     41 H         -5.353778   1.937123   5.935189 H        1 UNL1     0.0623
     42 H         -7.490934   3.139379   5.713089 H        1 UNL1     0.0654
     43 H         -8.38019   2.344824   9.839503 H        1 UNL1     0.0654
     44 H         -6.294593   1.120751   10.080097 H        1 UNL1     0.0623
     45 H         -8.986629   4.441771   7.337291 H        1 UNL1     0.2921
     46 H         -5.378713   -3.90909   6.484517 H        1 UNL1     0.2922
     47 H         0.516795   0.364646   2.26409 H        1 UNL1     0.2126
     48 H         1.20126   -1.888342   -0.284737 H        1 UNL1     0.2101
     49 H         -2.022252   0.932251   -0.901683 H        1 UNL1     0.2100
     50 H         -2.674748   -3.339113   -1.149236 H        1 UNL1     0.2102
@<TRIPOS>BOND
     1     1     2    1
     2     1     6    1
     3     2     3    1
     4     3     4    1
     5     3    29    1
     6     3    33    1
     7     4     5    1
     8     5     6    1
     9     5     7    1
    10     5    35    1
    11     7     8    1
    12     8     9   ar
    13     8    13   ar
    14     9    10   ar
    15     9    36    1
    16    10    11   ar
    17    10    26    1
    18    11    12   ar
    19    11    14    1
    20    12    13   ar
    21    12    17    1
    22    13    37    1
    23    14    15    1
    24    14    25    2
    25    15    16    1
    26    15    38    1
    27    15    39    1
    28    16    17    1
    29    16    18    1
    30    16    40    1
    31    18    19   ar
    32    18    23   ar
    33    19    20   ar
    34    19    41    1
    35    20    21   ar
    36    20    42    1
    37    21    22   ar
    38    21    24    1
    39    22    23   ar
    40    22    43    1
    41    23    44    1
    42    24    45    1
    43    26    46    1
    44    27    47    1
    45    28    48    1
    46    29    49    1
    47    30    50    1
    48     1    31    1
    49     1    27    1
    50     2    32    1
    51     2    28    1
    52     4    34    1
    53     4    30    1
