@<TRIPOS>MOLECULE
*****
 50 53 0 0 0
SMALL
GASTEIGER

@<TRIPOS>ATOM
     1 C         -2.16764   -0.234646   -0.130705 C.3        1 UNL1     0.1889
     2 C         -0.781191   0.049427   -0.768673 C.3        1 UNL1     0.1342
     3 C         -0.676893   1.394729   -1.50335 C.3        1 UNL1     0.1174
     4 C         -1.981329   1.794667   -2.197333 C.3        1 UNL1     0.1456
     5 C         -3.211759   1.616169   -1.289288 C.3        1 UNL1     0.2326
     6 O         -3.291933   0.26564   -0.839276 O.3        1 UNL1     -0.3076
     7 O         -3.277124   2.574545   -0.217578 O.3        1 UNL1     -0.4605
     8 C         -4.546768   2.938644   0.193477 C.ar        1 UNL1     0.1310
     9 C         -5.607978   3.27392   -0.654299 C.ar        1 UNL1     0.0226
     10 C         -6.865235   3.613467   -0.140574 C.ar        1 UNL1     0.1343
     11 C         -7.098598   3.602845   1.233933 C.ar        1 UNL1     0.1007
     12 C         -6.035531   3.30962   2.09224 C.ar        1 UNL1     0.1389
     13 C         -4.770751   2.970813   1.575546 C.ar        1 UNL1     0.0229
     14 C         -8.429117   3.871523   1.826965 C.2        1 UNL1     0.1740
     15 C         -8.551424   3.599514   3.297544 C.3        1 UNL1     0.0520
     16 C         -7.277412   4.07404   3.982873 C.3        1 UNL1     0.1322
     17 O         -6.124795   3.37499   3.463381 O.3        1 UNL1     -0.4828
     18 C         -7.130371   5.597006   4.023857 C.ar        1 UNL1     -0.0067
     19 C         -5.913045   6.186218   3.624908 C.ar        1 UNL1     -0.0516
     20 C         -5.728918   7.572272   3.695017 C.ar        1 UNL1     -0.0198
     21 C         -6.749526   8.377466   4.168143 C.ar        1 UNL1     0.1169
     22 C         -7.971466   7.829972   4.536859 C.ar        1 UNL1     -0.0198
     23 C         -8.162292   6.445776   4.449444 C.ar        1 UNL1     -0.0516
     24 O         -6.520449   9.71906   4.257869 O.3        1 UNL1     -0.5068
     25 O         -9.405982   4.217023   1.167534 O.2        1 UNL1     -0.2917
     26 O         -7.857752   3.931588   -1.021082 O.3        1 UNL1     -0.5058
     27 O         -2.231946   0.088663   1.249195 O.3        1 UNL1     -0.3648
     28 O         -0.50014   -0.985905   -1.72878 O.3        1 UNL1     -0.3841
     29 O         -0.179749   2.411621   -0.631047 O.3        1 UNL1     -0.3863
     30 O         -2.156165   0.98489   -3.380289 O.3        1 UNL1     -0.3829
     31 H         -2.308932   -1.320579   -0.160094 H        1 UNL1     0.0937
     32 H         0.0   0.0   0.0 H        1 UNL1     0.0671
     33 H         0.082459   1.288863   -2.290685 H        1 UNL1     0.0649
     34 H         -1.924354   2.837549   -2.528318 H        1 UNL1     0.0683
     35 H         -4.062963   1.779222   -1.96215 H        1 UNL1     0.1085
     36 H         -5.506115   3.246485   -1.733647 H        1 UNL1     0.0691
     37 H         -3.959325   2.747663   2.264954 H        1 UNL1     0.0691
     38 H         -8.689731   2.520481   3.424377 H        1 UNL1     0.0385
     39 H         -9.44254   4.10627   3.683404 H        1 UNL1     0.0385
     40 H         -7.338662   3.759634   5.033548 H        1 UNL1     0.0789
     41 H         -5.093357   5.575028   3.258564 H        1 UNL1     0.0623
     42 H         -4.781431   8.013487   3.395668 H        1 UNL1     0.0654
     43 H         -8.782645   8.452833   4.894551 H        1 UNL1     0.0654
     44 H         -9.133252   6.053282   4.735854 H        1 UNL1     0.0623
     45 H         -5.776392   9.86323   4.864755 H        1 UNL1     0.2921
     46 H         -8.618847   3.347694   -0.875433 H        1 UNL1     0.2922
     47 H         -1.539373   -0.380046   1.735523 H        1 UNL1     0.2126
     48 H         -0.477481   -1.82755   -1.233955 H        1 UNL1     0.2101
     49 H         0.75295   2.241605   -0.423779 H        1 UNL1     0.2100
     50 H         -1.440874   1.212388   -4.009825 H        1 UNL1     0.2102
@<TRIPOS>BOND
     1     1     2    1
     2     1     6    1
     3     2     3    1
     4     3     4    1
     5     3    29    1
     6     3    33    1
     7     4     5    1
     8     5     6    1
     9     5     7    1
    10     5    35    1
    11     7     8    1
    12     8     9   ar
    13     8    13   ar
    14     9    10   ar
    15     9    36    1
    16    10    11   ar
    17    10    26    1
    18    11    12   ar
    19    11    14    1
    20    12    13   ar
    21    12    17    1
    22    13    37    1
    23    14    15    1
    24    14    25    2
    25    15    16    1
    26    15    38    1
    27    15    39    1
    28    16    17    1
    29    16    18    1
    30    16    40    1
    31    18    19   ar
    32    18    23   ar
    33    19    20   ar
    34    19    41    1
    35    20    21   ar
    36    20    42    1
    37    21    22   ar
    38    21    24    1
    39    22    23   ar
    40    22    43    1
    41    23    44    1
    42    24    45    1
    43    26    46    1
    44    27    47    1
    45    28    48    1
    46    29    49    1
    47    30    50    1
    48     1    31    1
    49     1    27    1
    50     2    32    1
    51     2    28    1
    52     4    34    1
    53     4    30    1
