@<TRIPOS>MOLECULE
*****
 50 53 0 0 0
SMALL
GASTEIGER

@<TRIPOS>ATOM
     1 C         -0.31748   -1.374951   1.667189 C.3        1 UNL1     0.1889
     2 C         -0.460271   -0.9808   0.172467 C.3        1 UNL1     0.1342
     3 C         -1.905353   -0.954783   -0.348614 C.3        1 UNL1     0.1174
     4 C         -2.785673   -2.03255   0.289017 C.3        1 UNL1     0.1456
     5 C         -2.62173   -2.099926   1.818379 C.3        1 UNL1     0.2326
     6 O         -1.253933   -2.326416   2.151097 O.3        1 UNL1     -0.3076
     7 O         -3.192096   -0.971741   2.506275 O.3        1 UNL1     -0.4605
     8 C         -3.702032   -1.224912   3.766988 C.ar        1 UNL1     0.1310
     9 C         -4.997364   -1.67666   4.04147 C.ar        1 UNL1     0.0226
     10 C         -5.415488   -1.921002   5.355004 C.ar        1 UNL1     0.1343
     11 C         -4.539952   -1.742093   6.425176 C.ar        1 UNL1     0.1007
     12 C         -3.256949   -1.252112   6.167093 C.ar        1 UNL1     0.1389
     13 C         -2.837619   -1.003983   4.846478 C.ar        1 UNL1     0.0229
     14 C         -4.902238   -2.064969   7.824695 C.2        1 UNL1     0.1740
     15 C         -3.773994   -2.025152   8.813143 C.3        1 UNL1     0.0520
     16 C         -2.890774   -0.828373   8.488183 C.3        1 UNL1     0.1322
     17 O         -2.350516   -0.937346   7.152774 O.3        1 UNL1     -0.4828
     18 C         -3.542022   0.521009   8.80086 C.ar        1 UNL1     -0.0067
     19 C         -3.038315   1.304328   9.859587 C.ar        1 UNL1     -0.0516
     20 C         -3.640123   2.520988   10.202411 C.ar        1 UNL1     -0.0198
     21 C         -4.748178   2.960776   9.500536 C.ar        1 UNL1     0.1169
     22 C         -5.246961   2.227898   8.431451 C.ar        1 UNL1     -0.0198
     23 C         -4.634094   1.020207   8.076583 C.ar        1 UNL1     -0.0516
     24 O         -5.330572   4.13193   9.887339 O.3        1 UNL1     -0.5068
     25 O         -6.026155   -2.423187   8.166714 O.2        1 UNL1     -0.2917
     26 O         -6.692007   -2.35928   5.554993 O.3        1 UNL1     -0.5058
     27 O         -0.206101   -0.260208   2.537666 O.3        1 UNL1     -0.3648
     28 O         0.264688   -1.937263   -0.622718 O.3        1 UNL1     -0.3841
     29 O         -2.462948   0.355783   -0.231837 O.3        1 UNL1     -0.3863
     30 O         -2.441559   -3.318188   -0.271706 O.3        1 UNL1     -0.3829
     31 H         0.644419   -1.890112   1.764349 H        1 UNL1     0.0937
     32 H         0.0   0.0   0.0 H        1 UNL1     0.0671
     33 H         -1.876821   -1.164699   -1.426965 H        1 UNL1     0.0649
     34 H         -3.837932   -1.848077   0.045866 H        1 UNL1     0.0683
     35 H         -3.173432   -3.004329   2.103966 H        1 UNL1     0.1085
     36 H         -5.707235   -1.888372   3.249396 H        1 UNL1     0.0691
     37 H         -1.834084   -0.621785   4.672301 H        1 UNL1     0.0691
     38 H         -3.217658   -2.963818   8.718686 H        1 UNL1     0.0385
     39 H         -4.186324   -1.972417   9.826544 H        1 UNL1     0.0385
     40 H         -2.01247   -0.886349   9.145253 H        1 UNL1     0.0789
     41 H         -2.17525   0.97666   10.431779 H        1 UNL1     0.0623
     42 H         -3.249626   3.110164   11.028483 H        1 UNL1     0.0654
     43 H         -6.104995   2.570401   7.865429 H        1 UNL1     0.0654
     44 H         -5.043727   0.478745   7.229314 H        1 UNL1     0.0623
     45 H         -5.030763   4.835692   9.289384 H        1 UNL1     0.2921
     46 H         -6.700056   -3.017873   6.267455 H        1 UNL1     0.2922
     47 H         0.684651   -0.215731   2.912424 H        1 UNL1     0.2126
     48 H         -0.2945   -2.137636   -1.39789 H        1 UNL1     0.2101
     49 H         -2.99045   0.561425   -1.02003 H        1 UNL1     0.2100
     50 H         -1.887423   -3.793474   0.381555 H        1 UNL1     0.2102
@<TRIPOS>BOND
     1     1     2    1
     2     1     6    1
     3     2     3    1
     4     3     4    1
     5     3    29    1
     6     3    33    1
     7     4     5    1
     8     5     6    1
     9     5     7    1
    10     5    35    1
    11     7     8    1
    12     8     9   ar
    13     8    13   ar
    14     9    10   ar
    15     9    36    1
    16    10    11   ar
    17    10    26    1
    18    11    12   ar
    19    11    14    1
    20    12    13   ar
    21    12    17    1
    22    13    37    1
    23    14    15    1
    24    14    25    2
    25    15    16    1
    26    15    38    1
    27    15    39    1
    28    16    17    1
    29    16    18    1
    30    16    40    1
    31    18    19   ar
    32    18    23   ar
    33    19    20   ar
    34    19    41    1
    35    20    21   ar
    36    20    42    1
    37    21    22   ar
    38    21    24    1
    39    22    23   ar
    40    22    43    1
    41    23    44    1
    42    24    45    1
    43    26    46    1
    44    27    47    1
    45    28    48    1
    46    29    49    1
    47    30    50    1
    48     1    31    1
    49     1    27    1
    50     2    32    1
    51     2    28    1
    52     4    34    1
    53     4    30    1
