@<TRIPOS>MOLECULE
*****
 50 53 0 0 0
SMALL
GASTEIGER

@<TRIPOS>ATOM
     1 C         -0.323092   -1.362479   1.676325 C.3        1 UNL1     0.1889
     2 C         -0.46442   -0.977662   0.179034 C.3        1 UNL1     0.1342
     3 C         -1.909455   -0.94895   -0.342039 C.3        1 UNL1     0.1174
     4 C         -2.794266   -2.018696   0.302842 C.3        1 UNL1     0.1456
     5 C         -2.630388   -2.076608   1.832598 C.3        1 UNL1     0.2326
     6 O         -1.26352   -2.306709   2.166653 O.3        1 UNL1     -0.3076
     7 O         -3.195842   -0.941457   2.51305 O.3        1 UNL1     -0.4605
     8 C         -3.706563   -1.184047   3.775525 C.ar        1 UNL1     0.1310
     9 C         -4.553589   -2.243838   4.117125 C.ar        1 UNL1     0.0226
     10 C         -5.005092   -2.414822   5.431206 C.ar        1 UNL1     0.1343
     11 C         -4.600951   -1.543005   6.441378 C.ar        1 UNL1     0.1007
     12 C         -3.788324   -0.457202   6.104549 C.ar        1 UNL1     0.1389
     13 C         -3.336611   -0.283978   4.782664 C.ar        1 UNL1     0.0229
     14 C         -4.979904   -1.725224   7.86171 C.2        1 UNL1     0.1740
     15 C         -4.278465   -0.830287   8.840802 C.3        1 UNL1     0.0520
     16 C         -4.17024   0.560335   8.230545 C.3        1 UNL1     0.1322
     17 O         -3.418892   0.522042   6.997224 O.3        1 UNL1     -0.4828
     18 C         -5.508322   1.297382   8.135557 C.ar        1 UNL1     -0.0067
     19 C         -5.867366   1.927903   6.926531 C.ar        1 UNL1     -0.0516
     20 C         -7.061821   2.650365   6.820276 C.ar        1 UNL1     -0.0198
     21 C         -7.90035   2.755676   7.915541 C.ar        1 UNL1     0.1169
     22 C         -7.590304   2.117882   9.109664 C.ar        1 UNL1     -0.0198
     23 C         -6.404841   1.379955   9.210652 C.ar        1 UNL1     -0.0516
     24 O         -9.036562   3.499035   7.785772 O.3        1 UNL1     -0.5068
     25 O         -5.753415   -2.597294   8.248569 O.2        1 UNL1     -0.2917
     26 O         -5.830257   -3.468101   5.698213 O.3        1 UNL1     -0.5058
     27 O         -0.206838   -0.242462   2.539363 O.3        1 UNL1     -0.3648
     28 O         0.256341   -1.942468   -0.609864 O.3        1 UNL1     -0.3841
     29 O         -2.461444   0.364727   -0.233907 O.3        1 UNL1     -0.3863
     30 O         -2.455714   -3.309485   -0.249367 O.3        1 UNL1     -0.3829
     31 H         0.636617   -1.881077   1.776793 H        1 UNL1     0.0937
     32 H         0.0   0.0   0.0 H        1 UNL1     0.0671
     33 H         -1.881974   -1.166145   -1.418975 H        1 UNL1     0.0649
     34 H         -3.845764   -1.83136   0.058594 H        1 UNL1     0.0683
     35 H         -3.185897   -2.976734   2.124253 H        1 UNL1     0.1085
     36 H         -4.858478   -2.987566   3.389091 H        1 UNL1     0.0691
     37 H         -2.705673   0.570098   4.546094 H        1 UNL1     0.0691
     38 H         -3.287588   -1.25731   9.028792 H        1 UNL1     0.0385
     39 H         -4.83383   -0.826067   9.784905 H        1 UNL1     0.0385
     40 H         -3.553201   1.164566   8.909284 H        1 UNL1     0.0789
     41 H         -5.22185   1.867762   6.055129 H        1 UNL1     0.0623
     42 H         -7.321805   3.142047   5.886108 H        1 UNL1     0.0654
     43 H         -8.247115   2.181297   9.969017 H        1 UNL1     0.0654
     44 H         -6.199399   0.885891   10.155395 H        1 UNL1     0.0623
     45 H         -8.782599   4.417215   7.598246 H        1 UNL1     0.2921
     46 H         -5.439804   -4.015803   6.397484 H        1 UNL1     0.2922
     47 H         0.522968   0.325201   2.254756 H        1 UNL1     0.2126
     48 H         1.196449   -1.863999   -0.357334 H        1 UNL1     0.2101
     49 H         -2.031535   0.956833   -0.871389 H        1 UNL1     0.2100
     50 H         -2.701909   -3.305749   -1.197569 H        1 UNL1     0.2102
@<TRIPOS>BOND
     1     1     2    1
     2     1     6    1
     3     2     3    1
     4     3     4    1
     5     3    29    1
     6     3    33    1
     7     4     5    1
     8     5     6    1
     9     5     7    1
    10     5    35    1
    11     7     8    1
    12     8     9   ar
    13     8    13   ar
    14     9    10   ar
    15     9    36    1
    16    10    11   ar
    17    10    26    1
    18    11    12   ar
    19    11    14    1
    20    12    13   ar
    21    12    17    1
    22    13    37    1
    23    14    15    1
    24    14    25    2
    25    15    16    1
    26    15    38    1
    27    15    39    1
    28    16    17    1
    29    16    18    1
    30    16    40    1
    31    18    19   ar
    32    18    23   ar
    33    19    20   ar
    34    19    41    1
    35    20    21   ar
    36    20    42    1
    37    21    22   ar
    38    21    24    1
    39    22    23   ar
    40    22    43    1
    41    23    44    1
    42    24    45    1
    43    26    46    1
    44    27    47    1
    45    28    48    1
    46    29    49    1
    47    30    50    1
    48     1    31    1
    49     1    27    1
    50     2    32    1
    51     2    28    1
    52     4    34    1
    53     4    30    1
