@<TRIPOS>MOLECULE
*****
 50 53 0 0 0
SMALL
GASTEIGER

@<TRIPOS>ATOM
     1 C         0.321878   -0.632476   2.065714 C.3        1 UNL1     0.1889
     2 C         0.016485   -0.934794   0.573977 C.3        1 UNL1     0.1342
     3 C         -1.29542   -1.696117   0.329523 C.3        1 UNL1     0.1174
     4 C         -1.612682   -2.703022   1.437947 C.3        1 UNL1     0.1456
     5 C         -1.431346   -2.107377   2.846027 C.3        1 UNL1     0.2326
     6 O         -0.101627   -1.615942   2.998362 O.3        1 UNL1     -0.3076
     7 O         -2.436348   -1.136905   3.19168 O.3        1 UNL1     -0.4605
     8 C         -2.771903   -1.062632   4.531611 C.ar        1 UNL1     0.1310
     9 C         -3.026784   -2.157057   5.36502 C.ar        1 UNL1     0.0226
     10 C         -3.343163   -1.978945   6.717086 C.ar        1 UNL1     0.1343
     11 C         -3.389019   -0.701921   7.274713 C.ar        1 UNL1     0.1007
     12 C         -3.176681   0.400845   6.443085 C.ar        1 UNL1     0.1389
     13 C         -2.861182   0.221616   5.083024 C.ar        1 UNL1     0.0229
     14 C         -3.635685   -0.460587   8.715222 C.2        1 UNL1     0.1740
     15 C         -3.429328   0.950539   9.181792 C.3        1 UNL1     0.0520
     16 C         -3.983012   1.893945   8.122842 C.3        1 UNL1     0.1322
     17 O         -3.303608   1.704946   6.861986 O.3        1 UNL1     -0.4828
     18 C         -5.510632   1.885144   8.027851 C.ar        1 UNL1     -0.0067
     19 C         -6.125272   1.760575   6.764952 C.ar        1 UNL1     -0.0516
     20 C         -7.519002   1.796516   6.637713 C.ar        1 UNL1     -0.0198
     21 C         -8.307093   1.96355   7.762363 C.ar        1 UNL1     0.1169
     22 C         -7.732486   2.055412   9.023405 C.ar        1 UNL1     -0.0198
     23 C         -6.339537   2.000984   9.15297 C.ar        1 UNL1     -0.0516
     24 O         -9.659056   2.03182   7.595222 O.3        1 UNL1     -0.5068
     25 O         -3.912846   -1.352803   9.512479 O.2        1 UNL1     -0.2917
     26 O         -3.58193   -3.087699   7.475531 O.3        1 UNL1     -0.5058
     27 O         -0.06388   0.671982   2.468662 O.3        1 UNL1     -0.3648
     28 O         1.084901   -1.741229   0.044018 O.3        1 UNL1     -0.3841
     29 O         -2.37051   -0.787567   0.082844 O.3        1 UNL1     -0.3863
     30 O         -0.741704   -3.846997   1.302267 O.3        1 UNL1     -0.3829
     31 H         1.412525   -0.634965   2.168483 H        1 UNL1     0.0937
     32 H         -0.0   0.0   0.0 H        1 UNL1     0.0671
     33 H         -1.180936   -2.271812   -0.599557 H        1 UNL1     0.0649
     34 H         -2.640093   -3.06768   1.329082 H        1 UNL1     0.0683
     35 H         -1.530193   -2.972306   3.513864 H        1 UNL1     0.1085
     36 H         -2.952028   -3.177384   5.005209 H        1 UNL1     0.0691
     37 H         -2.701396   1.096529   4.456534 H        1 UNL1     0.0691
     38 H         -2.353114   1.099689   9.319795 H        1 UNL1     0.0385
     39 H         -3.920209   1.083224   10.151952 H        1 UNL1     0.0385
     40 H         -3.716706   2.915007   8.427856 H        1 UNL1     0.0789
     41 H         -5.528401   1.63768   5.865901 H        1 UNL1     0.0623
     42 H         -7.980571   1.711338   5.657045 H        1 UNL1     0.0654
     43 H         -8.340912   2.17134   9.912387 H        1 UNL1     0.0654
     44 H         -5.925108   2.065261   10.15445 H        1 UNL1     0.0623
     45 H         -9.860296   2.797347   7.032916 H        1 UNL1     0.2921
     46 H         -2.979432   -3.095339   8.236023 H        1 UNL1     0.2922
     47 H         0.351467   1.33479   1.899424 H        1 UNL1     0.2126
     48 H         1.897571   -1.202929   0.103458 H        1 UNL1     0.2101
     49 H         -2.250182   -0.360444   -0.780221 H        1 UNL1     0.2100
     50 H         -0.969617   -4.30186   0.465089 H        1 UNL1     0.2102
@<TRIPOS>BOND
     1     1     2    1
     2     1     6    1
     3     2     3    1
     4     3     4    1
     5     3    29    1
     6     3    33    1
     7     4     5    1
     8     5     6    1
     9     5     7    1
    10     5    35    1
    11     7     8    1
    12     8     9   ar
    13     8    13   ar
    14     9    10   ar
    15     9    36    1
    16    10    11   ar
    17    10    26    1
    18    11    12   ar
    19    11    14    1
    20    12    13   ar
    21    12    17    1
    22    13    37    1
    23    14    15    1
    24    14    25    2
    25    15    16    1
    26    15    38    1
    27    15    39    1
    28    16    17    1
    29    16    18    1
    30    16    40    1
    31    18    19   ar
    32    18    23   ar
    33    19    20   ar
    34    19    41    1
    35    20    21   ar
    36    20    42    1
    37    21    22   ar
    38    21    24    1
    39    22    23   ar
    40    22    43    1
    41    23    44    1
    42    24    45    1
    43    26    46    1
    44    27    47    1
    45    28    48    1
    46    29    49    1
    47    30    50    1
    48     1    31    1
    49     1    27    1
    50     2    32    1
    51     2    28    1
    52     4    34    1
    53     4    30    1
