@<TRIPOS>MOLECULE
*****
 50 53 0 0 0
SMALL
GASTEIGER

@<TRIPOS>ATOM
     1 C         -0.506156   -1.189229   1.76078 C.3        1 UNL1     0.1889
     2 C         -0.505022   -0.946998   0.227397 C.3        1 UNL1     0.1342
     3 C         -1.897465   -0.940838   -0.421858 C.3        1 UNL1     0.1174
     4 C         -2.864477   -1.926852   0.238279 C.3        1 UNL1     0.1456
     5 C         -2.837019   -1.84106   1.77524 C.3        1 UNL1     0.2326
     6 O         -1.511549   -2.064074   2.250909 O.3        1 UNL1     -0.3076
     7 O         -3.428547   -0.635389   2.292708 O.3        1 UNL1     -0.4605
     8 C         -4.044617   -0.743556   3.526518 C.ar        1 UNL1     0.1310
     9 C         -4.919478   -1.766285   3.908545 C.ar        1 UNL1     0.0226
     10 C         -5.480771   -1.797246   5.190689 C.ar        1 UNL1     0.1343
     11 C         -5.161833   -0.818224   6.130707 C.ar        1 UNL1     0.1007
     12 C         -4.321603   0.230628   5.747686 C.ar        1 UNL1     0.1389
     13 C         -3.759437   0.262973   4.457587 C.ar        1 UNL1     0.0229
     14 C         -5.659839   -0.848316   7.525426 C.2        1 UNL1     0.1740
     15 C         -5.041997   0.152497   8.457194 C.3        1 UNL1     0.0520
     16 C         -4.87996   1.469604   7.710916 C.3        1 UNL1     0.1322
     17 O         -4.027116   1.303464   6.556739 O.3        1 UNL1     -0.4828
     18 C         -6.203835   2.182223   7.42412 C.ar        1 UNL1     -0.0067
     19 C         -6.464897   2.661445   6.123964 C.ar        1 UNL1     -0.0516
     20 C         -7.644758   3.359067   5.838982 C.ar        1 UNL1     -0.0198
     21 C         -8.566029   3.589826   6.844883 C.ar        1 UNL1     0.1169
     22 C         -8.352675   3.101316   8.127332 C.ar        1 UNL1     -0.0198
     23 C         -7.181423   2.387657   8.408251 C.ar        1 UNL1     -0.0516
     24 O         -9.685911   4.305719   6.538675 O.3        1 UNL1     -0.5068
     25 O         -6.464921   -1.678994   7.938103 O.2        1 UNL1     -0.2917
     26 O         -6.327531   -2.82142   5.499965 O.3        1 UNL1     -0.5058
     27 O         -0.435286   0.005897   2.521988 O.3        1 UNL1     -0.3648
     28 O         0.255346   -1.996483   -0.399602 O.3        1 UNL1     -0.3841
     29 O         -2.420497   0.387423   -0.487386 O.3        1 UNL1     -0.3863
     30 O         -2.514413   -3.270813   -0.157842 O.3        1 UNL1     -0.3829
     31 H         0.426431   -1.713989   1.995276 H        1 UNL1     0.0937
     32 H         0.0   0.0   0.0 H        1 UNL1     0.0671
     33 H         -1.78164   -1.260684   -1.466847 H        1 UNL1     0.0649
     34 H         -3.884962   -1.743797   -0.115984 H        1 UNL1     0.0683
     35 H         -3.440489   -2.69837   2.098849 H        1 UNL1     0.1085
     36 H         -5.163129   -2.586694   3.242448 H        1 UNL1     0.0691
     37 H         -3.109156   1.090997   4.183717 H        1 UNL1     0.0691
     38 H         -4.071362   -0.244396   8.773216 H        1 UNL1     0.0385
     39 H         -5.675174   0.254876   9.345104 H        1 UNL1     0.0385
     40 H         -4.321371   2.148285   8.36962 H        1 UNL1     0.0789
     41 H         -5.753398   2.501202   5.31914 H        1 UNL1     0.0623
     42 H         -7.829072   3.733915   4.835224 H        1 UNL1     0.0654
     43 H         -9.074479   3.263303   8.918956 H        1 UNL1     0.0654
     44 H         -7.052318   2.011394   9.4185 H        1 UNL1     0.0623
     45 H         -9.413172   5.18621   6.233606 H        1 UNL1     0.2921
     46 H         -5.997876   -3.288161   6.284116 H        1 UNL1     0.2922
     47 H         0.343485   0.519846   2.266583 H        1 UNL1     0.2126
     48 H         1.164238   -1.931553   -0.048271 H        1 UNL1     0.2101
     49 H         -1.914822   0.909884   -1.130131 H        1 UNL1     0.2100
     50 H         -2.670961   -3.351544   -1.121527 H        1 UNL1     0.2102
@<TRIPOS>BOND
     1     1     2    1
     2     1     6    1
     3     2     3    1
     4     3     4    1
     5     3    29    1
     6     3    33    1
     7     4     5    1
     8     5     6    1
     9     5     7    1
    10     5    35    1
    11     7     8    1
    12     8     9   ar
    13     8    13   ar
    14     9    10   ar
    15     9    36    1
    16    10    11   ar
    17    10    26    1
    18    11    12   ar
    19    11    14    1
    20    12    13   ar
    21    12    17    1
    22    13    37    1
    23    14    15    1
    24    14    25    2
    25    15    16    1
    26    15    38    1
    27    15    39    1
    28    16    17    1
    29    16    18    1
    30    16    40    1
    31    18    19   ar
    32    18    23   ar
    33    19    20   ar
    34    19    41    1
    35    20    21   ar
    36    20    42    1
    37    21    22   ar
    38    21    24    1
    39    22    23   ar
    40    22    43    1
    41    23    44    1
    42    24    45    1
    43    26    46    1
    44    27    47    1
    45    28    48    1
    46    29    49    1
    47    30    50    1
    48     1    31    1
    49     1    27    1
    50     2    32    1
    51     2    28    1
    52     4    34    1
    53     4    30    1
