@<TRIPOS>MOLECULE
*****
 50 53 0 0 0
SMALL
GASTEIGER

@<TRIPOS>ATOM
     1 C         -0.184338   -1.954458   -0.957559 C.3        1 UNL1     0.1889
     2 C         -0.626599   -0.479242   -0.762406 C.3        1 UNL1     0.1342
     3 C         -2.104313   -0.297628   -0.38314 C.3        1 UNL1     0.1174
     4 C         -3.018104   -1.333038   -1.043467 C.3        1 UNL1     0.1456
     5 C         -2.464642   -2.765358   -0.931661 C.3        1 UNL1     0.2326
     6 O         -1.160552   -2.828637   -1.504561 O.3        1 UNL1     -0.3076
     7 O         -2.522729   -3.299739   0.403398 O.3        1 UNL1     -0.4605
     8 C         -1.305686   -3.500177   1.029625 C.ar        1 UNL1     0.1310
     9 C         -1.062207   -3.339413   2.397898 C.ar        1 UNL1     0.0226
     10 C         0.204679   -3.583833   2.941186 C.ar        1 UNL1     0.1343
     11 C         1.253834   -4.018364   2.132299 C.ar        1 UNL1     0.1007
     12 C         1.033615   -4.143003   0.75798 C.ar        1 UNL1     0.1389
     13 C         -0.239631   -3.894631   0.211547 C.ar        1 UNL1     0.0229
     14 C         2.589482   -4.371722   2.666467 C.2        1 UNL1     0.1740
     15 C         3.524004   -5.030263   1.694591 C.3        1 UNL1     0.0520
     16 C         3.376519   -4.343717   0.343718 C.3        1 UNL1     0.1322
     17 O         2.021955   -4.459247   -0.145036 O.3        1 UNL1     -0.4828
     18 C         3.944231   -2.922712   0.30948 C.ar        1 UNL1     -0.0067
     19 C         3.663444   -2.03899   1.371744 C.ar        1 UNL1     -0.0516
     20 C         4.127382   -0.718303   1.349153 C.ar        1 UNL1     -0.0198
     21 C         4.865217   -0.268099   0.268994 C.ar        1 UNL1     0.1169
     22 C         5.186337   -1.124166   -0.77641 C.ar        1 UNL1     -0.0198
     23 C         4.738168   -2.450152   -0.745388 C.ar        1 UNL1     -0.0516
     24 O         5.267867   1.03507   0.264257 O.3        1 UNL1     -0.5068
     25 O         2.908796   -4.220763   3.84279 O.2        1 UNL1     -0.2917
     26 O         0.376439   -3.407271   4.283165 O.3        1 UNL1     -0.5058
     27 O         0.437127   -2.514644   0.188198 O.3        1 UNL1     -0.3648
     28 O         -0.411167   0.228692   -1.997365 O.3        1 UNL1     -0.3841
     29 O         -2.260885   -0.246541   1.036369 O.3        1 UNL1     -0.3863
     30 O         -3.174876   -1.003847   -2.440874 O.3        1 UNL1     -0.3829
     31 H         0.605945   -1.946374   -1.716154 H        1 UNL1     0.0937
     32 H         0.0   0.0   0.0 H        1 UNL1     0.0671
     33 H         -2.425402   0.688108   -0.747756 H        1 UNL1     0.0649
     34 H         -4.015278   -1.294309   -0.5912 H        1 UNL1     0.0683
     35 H         -3.126014   -3.355714   -1.578149 H        1 UNL1     0.1085
     36 H         -1.850007   -3.058039   3.088058 H        1 UNL1     0.0691
     37 H         -0.384816   -3.9978   -0.861659 H        1 UNL1     0.0691
     38 H         3.246046   -6.087818   1.632591 H        1 UNL1     0.0385
     39 H         4.546838   -4.967544   2.081443 H        1 UNL1     0.0385
     40 H         3.977973   -4.914367   -0.37679 H        1 UNL1     0.0789
     41 H         3.078563   -2.365514   2.226699 H        1 UNL1     0.0623
     42 H         3.894151   -0.043093   2.16873 H        1 UNL1     0.0654
     43 H         5.776251   -0.786241   -1.620045 H        1 UNL1     0.0654
     44 H         5.016578   -3.094212   -1.573953 H        1 UNL1     0.0623
     45 H         5.406408   1.316603   1.183094 H        1 UNL1     0.2921
     46 H         -0.081417   -2.599379   4.564395 H        1 UNL1     0.2922
     47 H         -0.225298   -2.925168   0.761368 H        1 UNL1     0.2126
     48 H         0.528408   0.494849   -2.006945 H        1 UNL1     0.2101
     49 H         -1.76361   -0.970309   1.449493 H        1 UNL1     0.2100
     50 H         -3.110546   -0.030418   -2.530378 H        1 UNL1     0.2102
@<TRIPOS>BOND
     1     1     2    1
     2     1     6    1
     3     2     3    1
     4     3     4    1
     5     3    29    1
     6     3    33    1
     7     4     5    1
     8     5     6    1
     9     5     7    1
    10     5    35    1
    11     7     8    1
    12     8     9   ar
    13     8    13   ar
    14     9    10   ar
    15     9    36    1
    16    10    11   ar
    17    10    26    1
    18    11    12   ar
    19    11    14    1
    20    12    13   ar
    21    12    17    1
    22    13    37    1
    23    14    15    1
    24    14    25    2
    25    15    16    1
    26    15    38    1
    27    15    39    1
    28    16    17    1
    29    16    18    1
    30    16    40    1
    31    18    19   ar
    32    18    23   ar
    33    19    20   ar
    34    19    41    1
    35    20    21   ar
    36    20    42    1
    37    21    22   ar
    38    21    24    1
    39    22    23   ar
    40    22    43    1
    41    23    44    1
    42    24    45    1
    43    26    46    1
    44    27    47    1
    45    28    48    1
    46    29    49    1
    47    30    50    1
    48     1    31    1
    49     1    27    1
    50     2    32    1
    51     2    28    1
    52     4    34    1
    53     4    30    1
