@<TRIPOS>MOLECULE
*****
 50 53 0 0 0
SMALL
GASTEIGER

@<TRIPOS>ATOM
     1 C         -0.333674   -1.331453   1.699029 C.3        1 UNL1     0.1889
     2 C         -0.459336   -0.977453   0.192764 C.3        1 UNL1     0.1342
     3 C         -1.897994   -0.97013   -0.346379 C.3        1 UNL1     0.1174
     4 C         -2.782752   -2.033641   0.308804 C.3        1 UNL1     0.1456
     5 C         -2.637368   -2.059995   1.841297 C.3        1 UNL1     0.2326
     6 O         -1.273064   -2.272962   2.196526 O.3        1 UNL1     -0.3076
     7 O         -3.219587   -0.915956   2.492078 O.3        1 UNL1     -0.4605
     8 C         -3.733478   -1.134756   3.75761 C.ar        1 UNL1     0.1310
     9 C         -4.546874   -2.211464   4.126916 C.ar        1 UNL1     0.0226
     10 C         -5.004519   -2.355011   5.442157 C.ar        1 UNL1     0.1343
     11 C         -4.639925   -1.437295   6.426387 C.ar        1 UNL1     0.1007
     12 C         -3.861841   -0.335637   6.060711 C.ar        1 UNL1     0.1389
     13 C         -3.403991   -0.190099   4.7376 C.ar        1 UNL1     0.0229
     14 C         -5.025674   -1.586097   7.848783 C.2        1 UNL1     0.1740
     15 C         -4.364471   -0.636035   8.803635 C.3        1 UNL1     0.0520
     16 C         -4.298228   0.736864   8.14887 C.3        1 UNL1     0.1322
     17 O         -3.534516   0.684356   6.923694 O.3        1 UNL1     -0.4828
     18 C         -5.659816   1.423781   8.018692 C.ar        1 UNL1     -0.0067
     19 C         -6.036292   1.986243   6.781713 C.ar        1 UNL1     -0.0516
     20 C         -7.253817   2.662874   6.641124 C.ar        1 UNL1     -0.0198
     21 C         -8.098406   2.789947   7.729402 C.ar        1 UNL1     0.1169
     22 C         -7.770618   2.217911   8.951763 C.ar        1 UNL1     -0.0198
     23 C         -6.561552   1.525298   9.087786 C.ar        1 UNL1     -0.0516
     24 O         -9.258351   3.488314   7.564441 O.3        1 UNL1     -0.5068
     25 O         -5.772452   -2.471281   8.257752 O.2        1 UNL1     -0.2917
     26 O         -5.795593   -3.42689   5.736878 O.3        1 UNL1     -0.5058
     27 O         -0.236401   -0.193709   2.540969 O.3        1 UNL1     -0.3648
     28 O         0.278251   -1.952143   -0.567925 O.3        1 UNL1     -0.3841
     29 O         -2.461002   0.341165   -0.27115 O.3        1 UNL1     -0.3863
     30 O         -2.427842   -3.332481   -0.213442 O.3        1 UNL1     -0.3829
     31 H         0.628538   -1.840596   1.821502 H        1 UNL1     0.0937
     32 H         0.0   0.0   0.0 H        1 UNL1     0.0671
     33 H         -1.855597   -1.20839   -1.418365 H        1 UNL1     0.0649
     34 H         -3.832512   -1.859235   0.04806 H        1 UNL1     0.0683
     35 H         -3.18975   -2.958396   2.143997 H        1 UNL1     0.1085
     36 H         -4.819302   -2.98861   3.421263 H        1 UNL1     0.0691
     37 H         -2.800484   0.677088   4.478255 H        1 UNL1     0.0691
     38 H         -3.361353   -1.022234   9.01371 H        1 UNL1     0.0385
     39 H         -4.928453   -0.620223   9.742492 H        1 UNL1     0.0385
     40 H         -3.708609   1.383843   8.812412 H        1 UNL1     0.0789
     41 H         -5.386727   1.908029   5.914765 H        1 UNL1     0.0623
     42 H         -7.527429   3.102544   5.685175 H        1 UNL1     0.0654
     43 H         -8.431547   2.298467   9.806512 H        1 UNL1     0.0654
     44 H         -6.342401   1.081913   10.05434 H        1 UNL1     0.0623
     45 H         -9.035058   4.396853   7.304798 H        1 UNL1     0.2921
     46 H         -5.391861   -3.939149   6.455211 H        1 UNL1     0.2922
     47 H         0.505599   0.363205   2.266847 H        1 UNL1     0.2126
     48 H         1.209611   -1.883369   -0.282317 H        1 UNL1     0.2101
     49 H         -2.021776   0.925984   -0.909007 H        1 UNL1     0.2100
     50 H         -2.657106   -3.347458   -1.165769 H        1 UNL1     0.2102
@<TRIPOS>BOND
     1     1     2    1
     2     1     6    1
     3     2     3    1
     4     3     4    1
     5     3    29    1
     6     3    33    1
     7     4     5    1
     8     5     6    1
     9     5     7    1
    10     5    35    1
    11     7     8    1
    12     8     9   ar
    13     8    13   ar
    14     9    10   ar
    15     9    36    1
    16    10    11   ar
    17    10    26    1
    18    11    12   ar
    19    11    14    1
    20    12    13   ar
    21    12    17    1
    22    13    37    1
    23    14    15    1
    24    14    25    2
    25    15    16    1
    26    15    38    1
    27    15    39    1
    28    16    17    1
    29    16    18    1
    30    16    40    1
    31    18    19   ar
    32    18    23   ar
    33    19    20   ar
    34    19    41    1
    35    20    21   ar
    36    20    42    1
    37    21    22   ar
    38    21    24    1
    39    22    23   ar
    40    22    43    1
    41    23    44    1
    42    24    45    1
    43    26    46    1
    44    27    47    1
    45    28    48    1
    46    29    49    1
    47    30    50    1
    48     1    31    1
    49     1    27    1
    50     2    32    1
    51     2    28    1
    52     4    34    1
    53     4    30    1
