@<TRIPOS>MOLECULE
*****
 50 53 0 0 0
SMALL
GASTEIGER

@<TRIPOS>ATOM
     1 C         -0.221428   -1.563589   1.508961 C.3        1 UNL1     0.1889
     2 C         -0.811777   -0.511748   0.53169 C.3        1 UNL1     0.1342
     3 C         -1.718953   0.538267   1.19121 C.3        1 UNL1     0.1174
     4 C         -2.5357   -0.029696   2.354594 C.3        1 UNL1     0.1456
     5 C         -1.684026   -0.882086   3.31295 C.3        1 UNL1     0.2326
     6 O         -1.056163   -1.941145   2.593887 O.3        1 UNL1     -0.3076
     7 O         -0.761377   -0.1088   4.101663 O.3        1 UNL1     -0.4605
     8 C         0.21964   -0.825576   4.762999 C.ar        1 UNL1     0.1310
     9 C         0.571661   -0.666964   6.107701 C.ar        1 UNL1     0.0226
     10 C         1.570149   -1.455137   6.692259 C.ar        1 UNL1     0.1343
     11 C         2.224964   -2.438358   5.951764 C.ar        1 UNL1     0.1007
     12 C         1.910835   -2.578217   4.597309 C.ar        1 UNL1     0.1389
     13 C         0.908677   -1.783791   4.009094 C.ar        1 UNL1     0.0229
     14 C         3.22816   -3.355526   6.540452 C.2        1 UNL1     0.1740
     15 C         3.664673   -4.49074   5.661648 C.3        1 UNL1     0.0520
     16 C         3.819498   -3.967679   4.240243 C.3        1 UNL1     0.1322
     17 O         2.567877   -3.439146   3.749156 O.3        1 UNL1     -0.4828
     18 C         5.018633   -3.034852   4.05414 C.ar        1 UNL1     -0.0067
     19 C         5.406999   -2.6575   2.752222 C.ar        1 UNL1     -0.0516
     20 C         6.527351   -1.844176   2.544192 C.ar        1 UNL1     -0.0198
     21 C         7.27027   -1.408687   3.626896 C.ar        1 UNL1     0.1169
     22 C         6.893413   -1.735951   4.922935 C.ar        1 UNL1     -0.0198
     23 C         5.762372   -2.534051   5.132308 C.ar        1 UNL1     -0.0516
     24 O         8.376836   -0.649395   3.383197 O.3        1 UNL1     -0.5068
     25 O         3.632339   -3.263323   7.696576 O.2        1 UNL1     -0.2917
     26 O         1.866823   -1.249757   8.008082 O.3        1 UNL1     -0.5058
     27 O         1.094176   -1.256861   1.942424 O.3        1 UNL1     -0.3648
     28 O         -1.600984   -1.199687   -0.456539 O.3        1 UNL1     -0.3841
     29 O         -0.969186   1.698837   1.555981 O.3        1 UNL1     -0.3863
     30 O         -3.602799   -0.848648   1.828946 O.3        1 UNL1     -0.3829
     31 H         -0.107787   -2.491741   0.938261 H        1 UNL1     0.0937
     32 H         0.0   0.0   0.0 H        1 UNL1     0.0671
     33 H         -2.438915   0.881717   0.435289 H        1 UNL1     0.0649
     34 H         -3.004493   0.786162   2.91585 H        1 UNL1     0.0683
     35 H         -2.420894   -1.343834   3.982049 H        1 UNL1     0.1085
     36 H         0.06124   0.041362   6.751025 H        1 UNL1     0.0691
     37 H         0.683636   -1.911442   2.952423 H        1 UNL1     0.0691
     38 H         2.893419   -5.266514   5.715205 H        1 UNL1     0.0385
     39 H         4.59833   -4.909049   6.052905 H        1 UNL1     0.0385
     40 H         4.0229   -4.834328   3.596761 H        1 UNL1     0.0789
     41 H         4.845788   -2.993772   1.885265 H        1 UNL1     0.0623
     42 H         6.823608   -1.569855   1.534741 H        1 UNL1     0.0654
     43 H         7.45931   -1.387897   5.778815 H        1 UNL1     0.0654
     44 H         5.490847   -2.761518   6.15865 H        1 UNL1     0.0623
     45 H         8.387643   0.088351   4.014332 H        1 UNL1     0.2921
     46 H         2.714297   -0.782757   8.079573 H        1 UNL1     0.2922
     47 H         1.102027   -0.414793   2.418575 H        1 UNL1     0.2126
     48 H         -2.144109   -0.521475   -0.902383 H        1 UNL1     0.2101
     49 H         -1.070823   1.872456   2.50536 H        1 UNL1     0.2100
     50 H         -4.237647   -0.259385   1.371289 H        1 UNL1     0.2102
@<TRIPOS>BOND
     1     1     2    1
     2     1     6    1
     3     2     3    1
     4     3     4    1
     5     3    29    1
     6     3    33    1
     7     4     5    1
     8     5     6    1
     9     5     7    1
    10     5    35    1
    11     7     8    1
    12     8     9   ar
    13     8    13   ar
    14     9    10   ar
    15     9    36    1
    16    10    11   ar
    17    10    26    1
    18    11    12   ar
    19    11    14    1
    20    12    13   ar
    21    12    17    1
    22    13    37    1
    23    14    15    1
    24    14    25    2
    25    15    16    1
    26    15    38    1
    27    15    39    1
    28    16    17    1
    29    16    18    1
    30    16    40    1
    31    18    19   ar
    32    18    23   ar
    33    19    20   ar
    34    19    41    1
    35    20    21   ar
    36    20    42    1
    37    21    22   ar
    38    21    24    1
    39    22    23   ar
    40    22    43    1
    41    23    44    1
    42    24    45    1
    43    26    46    1
    44    27    47    1
    45    28    48    1
    46    29    49    1
    47    30    50    1
    48     1    31    1
    49     1    27    1
    50     2    32    1
    51     2    28    1
    52     4    34    1
    53     4    30    1
