@<TRIPOS>MOLECULE
*****
 50 53 0 0 0
SMALL
GASTEIGER

@<TRIPOS>ATOM
     1 C         0.241925   1.39747   -1.661131 C.3        1 UNL1     0.1889
     2 C         -0.185115   1.061348   -0.206964 C.3        1 UNL1     0.1342
     3 C         -1.64958   1.388253   0.123097 C.3        1 UNL1     0.1174
     4 C         -2.154801   2.641108   -0.596779 C.3        1 UNL1     0.1456
     5 C         -1.781235   2.654708   -2.090308 C.3        1 UNL1     0.2326
     6 O         -0.367651   2.542498   -2.238819 O.3        1 UNL1     -0.3076
     7 O         -2.510599   1.691551   -2.872406 O.3        1 UNL1     -0.4605
     8 C         -3.886521   1.713084   -2.731321 C.ar        1 UNL1     0.1310
     9 C         -4.620123   0.942442   -1.822894 C.ar        1 UNL1     0.0226
     10 C         -6.013842   1.048349   -1.743952 C.ar        1 UNL1     0.1343
     11 C         -6.706207   1.945733   -2.555846 C.ar        1 UNL1     0.1007
     12 C         -5.98876   2.690869   -3.495435 C.ar        1 UNL1     0.1389
     13 C         -4.587662   2.582271   -3.576444 C.ar        1 UNL1     0.0229
     14 C         -8.168639   2.158962   -2.455934 C.2        1 UNL1     0.1740
     15 C         -8.711512   3.315085   -3.243473 C.3        1 UNL1     0.0520
     16 C         -8.003753   3.354906   -4.590859 C.3        1 UNL1     0.1322
     17 O         -6.579533   3.523725   -4.417174 O.3        1 UNL1     -0.4828
     18 C         -8.397295   2.210236   -5.527652 C.ar        1 UNL1     -0.0067
     19 C         -9.395994   1.299256   -5.126492 C.ar        1 UNL1     -0.0516
     20 C         -9.746328   0.213933   -5.938467 C.ar        1 UNL1     -0.0198
     21 C         -9.101654   0.024868   -7.147796 C.ar        1 UNL1     0.1169
     22 C         -8.137626   0.923756   -7.585391 C.ar        1 UNL1     -0.0198
     23 C         -7.800124   2.019533   -6.78201 C.ar        1 UNL1     -0.0516
     24 O         -9.442743   -1.064498   -7.894349 O.3        1 UNL1     -0.5068
     25 O         -8.899541   1.49899   -1.721969 O.2        1 UNL1     -0.2917
     26 O         -6.670089   0.267855   -0.837445 O.3        1 UNL1     -0.5058
     27 O         0.195471   0.281733   -2.536208 O.3        1 UNL1     -0.3648
     28 O         0.637789   1.821482   0.697321 O.3        1 UNL1     -0.3841
     29 O         -2.48496   0.249612   -0.095467 O.3        1 UNL1     -0.3863
     30 O         -1.588738   3.810534   0.033859 O.3        1 UNL1     -0.3829
     31 H         1.303481   1.66506   -1.621492 H        1 UNL1     0.0937
     32 H         0.0   0.0   0.0 H        1 UNL1     0.0671
     33 H         -1.712609   1.593799   1.200825 H        1 UNL1     0.0649
     34 H         -3.243064   2.717398   -0.495472 H        1 UNL1     0.0683
     35 H         -2.057854   3.663014   -2.422994 H        1 UNL1     0.1085
     36 H         -4.135513   0.267511   -1.125942 H        1 UNL1     0.0691
     37 H         -4.052541   3.172519   -4.317217 H        1 UNL1     0.0691
     38 H         -8.518286   4.227155   -2.668739 H        1 UNL1     0.0385
     39 H         -9.795742   3.200255   -3.348538 H        1 UNL1     0.0385
     40 H         -8.328842   4.272144   -5.100283 H        1 UNL1     0.0789
     41 H         -9.910379   1.420558   -4.177628 H        1 UNL1     0.0623
     42 H         -10.509656   -0.488326   -5.612623 H        1 UNL1     0.0654
     43 H         -7.637187   0.793601   -8.537511 H        1 UNL1     0.0654
     44 H         -7.050154   2.707679   -7.159957 H        1 UNL1     0.0623
     45 H         -9.22944   -1.863706   -7.385935 H        1 UNL1     0.2921
     46 H         -7.416138   0.76325   -0.464072 H        1 UNL1     0.2922
     47 H         0.705132   0.463688   -3.338079 H        1 UNL1     0.2126
     48 H         1.535114   1.439338   0.647263 H        1 UNL1     0.2101
     49 H         -1.951203   -0.560557   -0.072573 H        1 UNL1     0.2100
     50 H         -1.102902   3.517112   0.832345 H        1 UNL1     0.2102
@<TRIPOS>BOND
     1     1     2    1
     2     1     6    1
     3     2     3    1
     4     3     4    1
     5     3    29    1
     6     3    33    1
     7     4     5    1
     8     5     6    1
     9     5     7    1
    10     5    35    1
    11     7     8    1
    12     8     9   ar
    13     8    13   ar
    14     9    10   ar
    15     9    36    1
    16    10    11   ar
    17    10    26    1
    18    11    12   ar
    19    11    14    1
    20    12    13   ar
    21    12    17    1
    22    13    37    1
    23    14    15    1
    24    14    25    2
    25    15    16    1
    26    15    38    1
    27    15    39    1
    28    16    17    1
    29    16    18    1
    30    16    40    1
    31    18    19   ar
    32    18    23   ar
    33    19    20   ar
    34    19    41    1
    35    20    21   ar
    36    20    42    1
    37    21    22   ar
    38    21    24    1
    39    22    23   ar
    40    22    43    1
    41    23    44    1
    42    24    45    1
    43    26    46    1
    44    27    47    1
    45    28    48    1
    46    29    49    1
    47    30    50    1
    48     1    31    1
    49     1    27    1
    50     2    32    1
    51     2    28    1
    52     4    34    1
    53     4    30    1
