@<TRIPOS>MOLECULE
*****
 50 53 0 0 0
SMALL
GASTEIGER

@<TRIPOS>ATOM
     1 C         -0.213214   -1.184859   1.822486 C.3        1 UNL1     0.1889
     2 C         -0.522029   -0.907982   0.32652 C.3        1 UNL1     0.1342
     3 C         -2.016062   -0.773934   -0.005689 C.3        1 UNL1     0.1174
     4 C         -2.897626   -1.693403   0.843157 C.3        1 UNL1     0.1456
     5 C         -2.532624   -1.645824   2.338106 C.3        1 UNL1     0.2326
     6 O         -1.159385   -1.986497   2.514246 O.3        1 UNL1     -0.3076
     7 O         -2.895208   -0.408523   2.977591 O.3        1 UNL1     -0.4605
     8 C         -3.237454   -0.494956   4.315098 C.ar        1 UNL1     0.1310
     9 C         -4.092013   -1.452111   4.872666 C.ar        1 UNL1     0.0226
     10 C         -4.36406   -1.467157   6.245862 C.ar        1 UNL1     0.1343
     11 C         -3.768785   -0.539104   7.099211 C.ar        1 UNL1     0.1007
     12 C         -2.945937   0.446906   6.548314 C.ar        1 UNL1     0.1389
     13 C         -2.674641   0.463445   5.167171 C.ar        1 UNL1     0.0229
     14 C         -3.954905   -0.561004   8.568576 C.2        1 UNL1     0.1740
     15 C         -3.068796   0.364776   9.349148 C.3        1 UNL1     0.0520
     16 C         -2.961558   1.681335   8.592095 C.3        1 UNL1     0.1322
     17 O         -2.394825   1.473442   7.279592 O.3        1 UNL1     -0.4828
     18 C         -4.251503   2.505137   8.602854 C.ar        1 UNL1     -0.0067
     19 C         -4.746722   3.032222   7.39242 C.ar        1 UNL1     -0.0516
     20 C         -5.897457   3.829353   7.373557 C.ar        1 UNL1     -0.0198
     21 C         -6.556347   4.112117   8.556661 C.ar        1 UNL1     0.1169
     22 C         -6.112144   3.580035   9.760161 C.ar        1 UNL1     -0.0198
     23 C         -4.97201   2.767711   9.776873 C.ar        1 UNL1     -0.0516
     24 O         -7.651804   4.923048   8.504096 O.3        1 UNL1     -0.5068
     25 O         -4.718842   -1.33314   9.141891 O.2        1 UNL1     -0.2917
     26 O         -5.207097   -2.426346   6.726309 O.3        1 UNL1     -0.5058
     27 O         0.12026   -0.017401   2.556397 O.3        1 UNL1     -0.3648
     28 O         -0.005633   -2.000792   -0.455661 O.3        1 UNL1     -0.3841
     29 O         -2.427273   0.593504   0.05044 O.3        1 UNL1     -0.3863
     30 O         -2.755457   -3.051752   0.373727 O.3        1 UNL1     -0.3829
     31 H         0.700453   -1.788767   1.846728 H        1 UNL1     0.0937
     32 H         0.0   0.0   0.0 H        1 UNL1     0.0671
     33 H         -2.155385   -1.077768   -1.052587 H        1 UNL1     0.0649
     34 H         -3.951357   -1.42008   0.719277 H        1 UNL1     0.0683
     35 H         -3.122161   -2.458694   2.780336 H        1 UNL1     0.1085
     36 H         -4.541634   -2.234526   4.271177 H        1 UNL1     0.0691
     37 H         -2.031577   1.242254   4.762922 H        1 UNL1     0.0691
     38 H         -2.089679   -0.116521   9.445119 H        1 UNL1     0.0385
     39 H         -3.484626   0.497512   10.35376 H        1 UNL1     0.0385
     40 H         -2.21905   2.29722   9.117346 H        1 UNL1     0.0789
     41 H         -4.242407   2.832362   6.451477 H        1 UNL1     0.0623
     42 H         -6.262609   4.239736   6.435335 H        1 UNL1     0.0654
     43 H         -6.629195   3.782756   10.690469 H        1 UNL1     0.0654
     44 H         -4.65927   2.360257   10.733439 H        1 UNL1     0.0623
     45 H         -7.378653   5.784945   8.150205 H        1 UNL1     0.2921
     46 H         -4.756366   -2.936314   7.417819 H        1 UNL1     0.2922
     47 H         0.866148   0.437541   2.141019 H        1 UNL1     0.2126
     48 H         0.959763   -2.017901   -0.309202 H        1 UNL1     0.2101
     49 H         -2.029797   1.08805   -0.683884 H        1 UNL1     0.2100
     50 H         -3.122137   -3.097137   -0.533577 H        1 UNL1     0.2102
@<TRIPOS>BOND
     1     1     2    1
     2     1     6    1
     3     2     3    1
     4     3     4    1
     5     3    29    1
     6     3    33    1
     7     4     5    1
     8     5     6    1
     9     5     7    1
    10     5    35    1
    11     7     8    1
    12     8     9   ar
    13     8    13   ar
    14     9    10   ar
    15     9    36    1
    16    10    11   ar
    17    10    26    1
    18    11    12   ar
    19    11    14    1
    20    12    13   ar
    21    12    17    1
    22    13    37    1
    23    14    15    1
    24    14    25    2
    25    15    16    1
    26    15    38    1
    27    15    39    1
    28    16    17    1
    29    16    18    1
    30    16    40    1
    31    18    19   ar
    32    18    23   ar
    33    19    20   ar
    34    19    41    1
    35    20    21   ar
    36    20    42    1
    37    21    22   ar
    38    21    24    1
    39    22    23   ar
    40    22    43    1
    41    23    44    1
    42    24    45    1
    43    26    46    1
    44    27    47    1
    45    28    48    1
    46    29    49    1
    47    30    50    1
    48     1    31    1
    49     1    27    1
    50     2    32    1
    51     2    28    1
    52     4    34    1
    53     4    30    1
