@<TRIPOS>MOLECULE
*****
 50 53 0 0 0
SMALL
GASTEIGER

@<TRIPOS>ATOM
     1 C         -0.398872   -1.40872   1.620868 C.3        1 UNL1     0.1889
     2 C         -0.501962   -0.965894   0.136544 C.3        1 UNL1     0.1342
     3 C         -1.936375   -0.86612   -0.404722 C.3        1 UNL1     0.1174
     4 C         -2.869277   -1.925303   0.187683 C.3        1 UNL1     0.1456
     5 C         -2.732484   -2.043624   1.716621 C.3        1 UNL1     0.2326
     6 O         -1.380342   -2.335019   2.062551 O.3        1 UNL1     -0.3076
     7 O         -3.267945   -0.913646   2.429187 O.3        1 UNL1     -0.4605
     8 C         -3.807491   -1.182358   3.674263 C.ar        1 UNL1     0.1310
     9 C         -4.672847   -2.240811   3.971138 C.ar        1 UNL1     0.0226
     10 C         -5.153496   -2.439922   5.270843 C.ar        1 UNL1     0.1343
     11 C         -4.761142   -1.598615   6.311085 C.ar        1 UNL1     0.1007
     12 C         -3.929993   -0.513892   6.018936 C.ar        1 UNL1     0.1389
     13 C         -3.448948   -0.312346   4.711493 C.ar        1 UNL1     0.0229
     14 C         -5.171599   -1.812471   7.71819 C.2        1 UNL1     0.1740
     15 C         -4.48113   -0.950631   8.734081 C.3        1 UNL1     0.0520
     16 C         -4.345195   0.453696   8.161943 C.3        1 UNL1     0.1322
     17 O         -3.568728   0.43817   6.943777 O.3        1 UNL1     -0.4828
     18 C         -5.672972   1.208011   8.058305 C.ar        1 UNL1     -0.0067
     19 C         -5.909007   2.313567   8.901068 C.ar        1 UNL1     -0.0516
     20 C         -7.130745   2.996232   8.865182 C.ar        1 UNL1     -0.0198
     21 C         -8.124934   2.579537   7.998129 C.ar        1 UNL1     0.1169
     22 C         -7.910139   1.515111   7.132278 C.ar        1 UNL1     -0.0198
     23 C         -6.681771   0.843802   7.154939 C.ar        1 UNL1     -0.0516
     24 O         -9.315311   3.245127   8.017982 O.3        1 UNL1     -0.5068
     25 O         -5.96238   -2.685254   8.066615 O.2        1 UNL1     -0.2917
     26 O         -5.99537   -3.490222   5.493782 O.3        1 UNL1     -0.5058
     27 O         -0.256664   -0.325144   2.525537 O.3        1 UNL1     -0.3648
     28 O         0.196547   -1.927529   -0.675891 O.3        1 UNL1     -0.3841
     29 O         -2.442683   0.462064   -0.257372 O.3        1 UNL1     -0.3863
     30 O         -2.568198   -3.207042   -0.40577 O.3        1 UNL1     -0.3829
     31 H         0.539901   -1.965112   1.716849 H        1 UNL1     0.0937
     32 H         0.0   0.0   0.0 H        1 UNL1     0.0671
     33 H         -1.899169   -1.045645   -1.488284 H        1 UNL1     0.0649
     34 H         -3.909285   -1.691282   -0.065335 H        1 UNL1     0.0683
     35 H         -3.324522   -2.932786   1.967143 H        1 UNL1     0.1085
     36 H         -4.970483   -2.96235   3.218201 H        1 UNL1     0.0691
     37 H         -2.804032   0.540255   4.509882 H        1 UNL1     0.0691
     38 H         -3.499057   -1.393468   8.931451 H        1 UNL1     0.0385
     39 H         -5.056   -0.964054   9.666349 H        1 UNL1     0.0385
     40 H         -3.735971   1.03351   8.868471 H        1 UNL1     0.0789
     41 H         -5.148022   2.654578   9.596958 H        1 UNL1     0.0623
     42 H         -7.305007   3.839866   9.528451 H        1 UNL1     0.0654
     43 H         -8.676372   1.189928   6.438698 H        1 UNL1     0.0654
     44 H         -6.544584   0.023271   6.457261 H        1 UNL1     0.0623
     45 H         -9.32933   3.870689   7.275559 H        1 UNL1     0.2921
     46 H         -5.792386   -3.890609   6.353956 H        1 UNL1     0.2922
     47 H         0.498773   0.224235   2.273828 H        1 UNL1     0.2126
     48 H         1.149854   -1.790312   -0.514309 H        1 UNL1     0.2101
     49 H         -2.99472   0.518367   0.538794 H        1 UNL1     0.2100
     50 H         -2.819738   -3.167847   -1.351764 H        1 UNL1     0.2102
@<TRIPOS>BOND
     1     1     2    1
     2     1     6    1
     3     2     3    1
     4     3     4    1
     5     3    29    1
     6     3    33    1
     7     4     5    1
     8     5     6    1
     9     5     7    1
    10     5    35    1
    11     7     8    1
    12     8     9   ar
    13     8    13   ar
    14     9    10   ar
    15     9    36    1
    16    10    11   ar
    17    10    26    1
    18    11    12   ar
    19    11    14    1
    20    12    13   ar
    21    12    17    1
    22    13    37    1
    23    14    15    1
    24    14    25    2
    25    15    16    1
    26    15    38    1
    27    15    39    1
    28    16    17    1
    29    16    18    1
    30    16    40    1
    31    18    19   ar
    32    18    23   ar
    33    19    20   ar
    34    19    41    1
    35    20    21   ar
    36    20    42    1
    37    21    22   ar
    38    21    24    1
    39    22    23   ar
    40    22    43    1
    41    23    44    1
    42    24    45    1
    43    26    46    1
    44    27    47    1
    45    28    48    1
    46    29    49    1
    47    30    50    1
    48     1    31    1
    49     1    27    1
    50     2    32    1
    51     2    28    1
    52     4    34    1
    53     4    30    1
