@<TRIPOS>MOLECULE
*****
 50 53 0 0 0
SMALL
GASTEIGER

@<TRIPOS>ATOM
     1 C         -1.330467   -1.565025   0.742535 C.3        1 UNL1     0.1889
     2 C         0.041749   -1.076892   0.205236 C.3        1 UNL1     0.1342
     3 C         0.534656   -1.808052   -1.052903 C.3        1 UNL1     0.1174
     4 C         0.140553   -3.287043   -1.072548 C.3        1 UNL1     0.1456
     5 C         -1.336384   -3.509314   -0.698896 C.3        1 UNL1     0.2326
     6 O         -1.602383   -2.949845   0.58528 O.3        1 UNL1     -0.3076
     7 O         -2.257092   -3.064454   -1.711673 O.3        1 UNL1     -0.4605
     8 C         -3.518235   -2.707122   -1.269678 C.ar        1 UNL1     0.1310
     9 C         -4.456599   -1.973799   -2.003851 C.ar        1 UNL1     0.0226
     10 C         -5.717585   -1.675861   -1.47371 C.ar        1 UNL1     0.1343
     11 C         -6.079862   -2.124912   -0.204478 C.ar        1 UNL1     0.1007
     12 C         -5.136545   -2.822865   0.554335 C.ar        1 UNL1     0.1389
     13 C         -3.867753   -3.120038   0.022088 C.ar        1 UNL1     0.0229
     14 C         -7.427858   -1.910913   0.371078 C.2        1 UNL1     0.1740
     15 C         -7.714751   -2.650104   1.644985 C.3        1 UNL1     0.0520
     16 C         -6.471041   -2.59991   2.521696 C.3        1 UNL1     0.1322
     17 O         -5.348316   -3.217887   1.854864 O.3        1 UNL1     -0.4828
     18 C         -6.180382   -1.21289   3.099985 C.ar        1 UNL1     -0.0067
     19 C         -6.951126   -0.737837   4.180954 C.ar        1 UNL1     -0.0516
     20 C         -6.743046   0.544499   4.702757 C.ar        1 UNL1     -0.0198
     21 C         -5.774477   1.362363   4.14886 C.ar        1 UNL1     0.1169
     22 C         -4.976877   0.910384   3.105602 C.ar        1 UNL1     -0.0198
     23 C         -5.172282   -0.378743   2.595676 C.ar        1 UNL1     -0.0516
     24 O         -5.626096   2.618747   4.658647 O.3        1 UNL1     -0.5068
     25 O         -8.299481   -1.242717   -0.178715 O.2        1 UNL1     -0.2917
     26 O         -6.586473   -0.955926   -2.240724 O.3        1 UNL1     -0.5058
     27 O         -2.421725   -0.765226   0.31561 O.3        1 UNL1     -0.3648
     28 O         1.030907   -1.27677   1.232037 O.3        1 UNL1     -0.3841
     29 O         0.131816   -1.112218   -2.234287 O.3        1 UNL1     -0.3863
     30 O         0.969802   -4.010734   -0.137504 O.3        1 UNL1     -0.3829
     31 H         -1.306596   -1.43058   1.829473 H        1 UNL1     0.0937
     32 H         0.0   0.0   -0.0 H        1 UNL1     0.0671
     33 H         1.633021   -1.771808   -1.053159 H        1 UNL1     0.0649
     34 H         0.330459   -3.711534   -2.064589 H        1 UNL1     0.0683
     35 H         -1.422294   -4.598344   -0.596365 H        1 UNL1     0.1085
     36 H         -4.256245   -1.644386   -3.017491 H        1 UNL1     0.0691
     37 H         -3.150907   -3.663832   0.633572 H        1 UNL1     0.0691
     38 H         -7.969242   -3.681665   1.379196 H        1 UNL1     0.0385
     39 H         -8.584558   -2.198361   2.134007 H        1 UNL1     0.0385
     40 H         -6.661859   -3.243179   3.391358 H        1 UNL1     0.0789
     41 H         -7.723737   -1.357072   4.627353 H        1 UNL1     0.0623
     42 H         -7.351914   0.903786   5.528713 H        1 UNL1     0.0654
     43 H         -4.205395   1.537031   2.674277 H        1 UNL1     0.0654
     44 H         -4.523973   -0.703021   1.787355 H        1 UNL1     0.0623
     45 H         -4.911551   2.600676   5.315773 H        1 UNL1     0.2921
     46 H         -7.441442   -0.89087   -1.786622 H        1 UNL1     0.2922
     47 H         -2.394368   0.098319   0.750814 H        1 UNL1     0.2126
     48 H         1.894164   -1.047276   0.837257 H        1 UNL1     0.2101
     49 H         -0.812277   -1.263334   -2.400559 H        1 UNL1     0.2100
     50 H         1.87349   -3.635198   -0.182612 H        1 UNL1     0.2102
@<TRIPOS>BOND
     1     1     2    1
     2     1     6    1
     3     2     3    1
     4     3     4    1
     5     3    29    1
     6     3    33    1
     7     4     5    1
     8     5     6    1
     9     5     7    1
    10     5    35    1
    11     7     8    1
    12     8     9   ar
    13     8    13   ar
    14     9    10   ar
    15     9    36    1
    16    10    11   ar
    17    10    26    1
    18    11    12   ar
    19    11    14    1
    20    12    13   ar
    21    12    17    1
    22    13    37    1
    23    14    15    1
    24    14    25    2
    25    15    16    1
    26    15    38    1
    27    15    39    1
    28    16    17    1
    29    16    18    1
    30    16    40    1
    31    18    19   ar
    32    18    23   ar
    33    19    20   ar
    34    19    41    1
    35    20    21   ar
    36    20    42    1
    37    21    22   ar
    38    21    24    1
    39    22    23   ar
    40    22    43    1
    41    23    44    1
    42    24    45    1
    43    26    46    1
    44    27    47    1
    45    28    48    1
    46    29    49    1
    47    30    50    1
    48     1    31    1
    49     1    27    1
    50     2    32    1
    51     2    28    1
    52     4    34    1
    53     4    30    1
