@<TRIPOS>MOLECULE
*****
 50 53 0 0 0
SMALL
GASTEIGER

@<TRIPOS>ATOM
     1 C         -0.35033   -1.338476   1.690134 C.3        1 UNL1     0.1889
     2 C         -0.471587   -0.972864   0.186284 C.3        1 UNL1     0.1342
     3 C         -1.91006   -0.943844   -0.352621 C.3        1 UNL1     0.1174
     4 C         -2.8081   -2.000498   0.295549 C.3        1 UNL1     0.1456
     5 C         -2.662999   -2.03892   1.827813 C.3        1 UNL1     0.2326
     6 O         -1.301468   -2.271399   2.181444 O.3        1 UNL1     -0.3076
     7 O         -3.230757   -0.892023   2.486296 O.3        1 UNL1     -0.4605
     8 C         -3.757924   -1.115278   3.745574 C.ar        1 UNL1     0.1310
     9 C         -4.760431   -2.04184   4.051783 C.ar        1 UNL1     0.0226
     10 C         -5.216957   -2.206718   5.36491 C.ar        1 UNL1     0.1343
     11 C         -4.664735   -1.465138   6.408438 C.ar        1 UNL1     0.1007
     12 C         -3.691917   -0.507668   6.109003 C.ar        1 UNL1     0.1389
     13 C         -3.234921   -0.340206   4.788192 C.ar        1 UNL1     0.0229
     14 C         -5.050136   -1.658294   7.825587 C.2        1 UNL1     0.1740
     15 C         -4.201197   -0.940002   8.833013 C.3        1 UNL1     0.0520
     16 C         -3.877783   0.445253   8.290401 C.3        1 UNL1     0.1322
     17 O         -3.158103   0.351518   7.041263 O.3        1 UNL1     -0.4828
     18 C         -5.080535   1.3914   8.260104 C.ar        1 UNL1     -0.0067
     19 C         -5.348417   2.13378   7.091632 C.ar        1 UNL1     -0.0516
     20 C         -6.41193   3.043095   7.046358 C.ar        1 UNL1     -0.0198
     21 C         -7.208575   3.224102   8.16279 C.ar        1 UNL1     0.1169
     22 C         -6.990407   2.483196   9.317042 C.ar        1 UNL1     -0.0198
     23 C         -5.93833   1.560355   9.356477 C.ar        1 UNL1     -0.0516
     24 O         -8.211539   4.145901   8.093855 O.3        1 UNL1     -0.5068
     25 O         -5.949242   -2.413993   8.18477 O.2        1 UNL1     -0.2917
     26 O         -6.197783   -3.126464   5.5965 O.3        1 UNL1     -0.5058
     27 O         -0.23872   -0.207698   2.539647 O.3        1 UNL1     -0.3648
     28 O         0.253653   -1.951649   -0.580992 O.3        1 UNL1     -0.3841
     29 O         -2.456526   0.373897   -0.268562 O.3        1 UNL1     -0.3863
     30 O         -2.469575   -3.30018   -0.235408 O.3        1 UNL1     -0.3829
     31 H         0.605407   -1.860489   1.809085 H        1 UNL1     0.0937
     32 H         0.0   0.0   0.0 H        1 UNL1     0.0671
     33 H         -1.870704   -1.175449   -1.426181 H        1 UNL1     0.0649
     34 H         -3.855593   -1.811163   0.036104 H        1 UNL1     0.0683
     35 H         -3.226626   -2.932305   2.124571 H        1 UNL1     0.1085
     36 H         -5.19048   -2.687863   3.294266 H        1 UNL1     0.0691
     37 H         -2.477512   0.412765   4.581167 H        1 UNL1     0.0691
     38 H         -3.289887   -1.529731   8.978823 H        1 UNL1     0.0385
     39 H         -4.736629   -0.896157   9.787565 H        1 UNL1     0.0385
     40 H         -3.162824   0.906276   8.985246 H        1 UNL1     0.0789
     41 H         -4.732123   2.016545   6.205016 H        1 UNL1     0.0623
     42 H         -6.600979   3.618343   6.143385 H        1 UNL1     0.0654
     43 H         -7.617471   2.606101   10.192026 H        1 UNL1     0.0654
     44 H         -5.803354   0.990957   10.271033 H        1 UNL1     0.0623
     45 H         -7.816717   5.016631   7.924558 H        1 UNL1     0.2921
     46 H         -5.89199   -3.765566   6.259411 H        1 UNL1     0.2922
     47 H         0.497388   0.35248   2.256443 H        1 UNL1     0.2126
     48 H         1.192666   -1.866803   -0.326457 H        1 UNL1     0.2101
     49 H         -2.015904   0.955331   -0.908547 H        1 UNL1     0.2100
     50 H         -2.704286   -3.307799   -1.186495 H        1 UNL1     0.2102
@<TRIPOS>BOND
     1     1     2    1
     2     1     6    1
     3     2     3    1
     4     3     4    1
     5     3    29    1
     6     3    33    1
     7     4     5    1
     8     5     6    1
     9     5     7    1
    10     5    35    1
    11     7     8    1
    12     8     9   ar
    13     8    13   ar
    14     9    10   ar
    15     9    36    1
    16    10    11   ar
    17    10    26    1
    18    11    12   ar
    19    11    14    1
    20    12    13   ar
    21    12    17    1
    22    13    37    1
    23    14    15    1
    24    14    25    2
    25    15    16    1
    26    15    38    1
    27    15    39    1
    28    16    17    1
    29    16    18    1
    30    16    40    1
    31    18    19   ar
    32    18    23   ar
    33    19    20   ar
    34    19    41    1
    35    20    21   ar
    36    20    42    1
    37    21    22   ar
    38    21    24    1
    39    22    23   ar
    40    22    43    1
    41    23    44    1
    42    24    45    1
    43    26    46    1
    44    27    47    1
    45    28    48    1
    46    29    49    1
    47    30    50    1
    48     1    31    1
    49     1    27    1
    50     2    32    1
    51     2    28    1
    52     4    34    1
    53     4    30    1
