@<TRIPOS>MOLECULE
*****
 50 53 0 0 0
SMALL
GASTEIGER

@<TRIPOS>ATOM
     1 C         -1.574657   -0.612831   1.384087 C.3        1 UNL1     0.1889
     2 C         -0.666285   0.466533   0.736188 C.3        1 UNL1     0.1342
     3 C         0.176918   1.27715   1.732368 C.3        1 UNL1     0.1174
     4 C         -0.544908   1.521397   3.059933 C.3        1 UNL1     0.1456
     5 C         -1.204691   0.246445   3.616303 C.3        1 UNL1     0.2326
     6 O         -2.113822   -0.288621   2.657109 O.3        1 UNL1     -0.3076
     7 O         -0.258686   -0.723438   4.101815 O.3        1 UNL1     -0.4605
     8 C         -0.679064   -2.041217   4.085447 C.ar        1 UNL1     0.1310
     9 C         0.152494   -3.158741   4.215646 C.ar        1 UNL1     0.0226
     10 C         -0.372198   -4.456608   4.203715 C.ar        1 UNL1     0.1343
     11 C         -1.745212   -4.667789   4.085066 C.ar        1 UNL1     0.1007
     12 C         -2.581357   -3.561399   3.913181 C.ar        1 UNL1     0.1389
     13 C         -2.053251   -2.25662   3.922558 C.ar        1 UNL1     0.0229
     14 C         -2.361698   -6.013078   4.150619 C.2        1 UNL1     0.1740
     15 C         -3.859896   -6.037537   4.230338 C.3        1 UNL1     0.0520
     16 C         -4.409577   -4.967997   3.296586 C.3        1 UNL1     0.1322
     17 O         -3.933473   -3.65893   3.67965 O.3        1 UNL1     -0.4828
     18 C         -4.234914   -5.297181   1.812047 C.ar        1 UNL1     -0.0067
     19 C         -5.375059   -5.42658   0.992572 C.ar        1 UNL1     -0.0516
     20 C         -5.253134   -5.773449   -0.358271 C.ar        1 UNL1     -0.0198
     21 C         -3.999939   -6.000231   -0.898549 C.ar        1 UNL1     0.1169
     22 C         -2.856404   -5.847829   -0.125283 C.ar        1 UNL1     -0.0198
     23 C         -2.976936   -5.482939   1.220965 C.ar        1 UNL1     -0.0516
     24 O         -3.922773   -6.373269   -2.208239 O.3        1 UNL1     -0.5068
     25 O         -1.710879   -7.052478   4.218189 O.2        1 UNL1     -0.2917
     26 O         0.492833   -5.503676   4.333929 O.3        1 UNL1     -0.5058
     27 O         -1.005436   -1.912303   1.371907 O.3        1 UNL1     -0.3648
     28 O         -1.501654   1.398308   0.024389 O.3        1 UNL1     -0.3841
     29 O         1.466413   0.685697   1.904179 O.3        1 UNL1     -0.3863
     30 O         -1.5649   2.525403   2.866851 O.3        1 UNL1     -0.3829
     31 H         -2.460511   -0.700489   0.745606 H        1 UNL1     0.0937
     32 H         0.0   0.0   0.0 H        1 UNL1     0.0671
     33 H         0.365535   2.263931   1.286938 H        1 UNL1     0.0649
     34 H         0.158497   1.917394   3.800749 H        1 UNL1     0.0683
     35 H         -1.806625   0.606683   4.459975 H        1 UNL1     0.1085
     36 H         1.221722   -3.059311   4.367252 H        1 UNL1     0.0691
     37 H         -2.725288   -1.412142   3.785757 H        1 UNL1     0.0691
     38 H         -4.139566   -5.835918   5.269887 H        1 UNL1     0.0385
     39 H         -4.216979   -7.039311   3.968198 H        1 UNL1     0.0385
     40 H         -5.495068   -4.923613   3.458635 H        1 UNL1     0.0789
     41 H         -6.370453   -5.262758   1.395069 H        1 UNL1     0.0623
     42 H         -6.140599   -5.881778   -0.976884 H        1 UNL1     0.0654
     43 H         -1.869263   -6.008309   -0.542068 H        1 UNL1     0.0654
     44 H         -2.061893   -5.362494   1.792835 H        1 UNL1     0.0623
     45 H         -4.475669   -7.161146   -2.335806 H        1 UNL1     0.2921
     46 H         0.603064   -5.941007   3.474858 H        1 UNL1     0.2922
     47 H         -0.680454   -2.127188   0.48643 H        1 UNL1     0.2126
     48 H         -2.308609   0.911449   -0.231588 H        1 UNL1     0.2101
     49 H         1.39491   -0.105725   2.461253 H        1 UNL1     0.2100
     50 H         -2.178125   2.202918   2.174269 H        1 UNL1     0.2102
@<TRIPOS>BOND
     1     1     2    1
     2     1     6    1
     3     2     3    1
     4     3     4    1
     5     3    29    1
     6     3    33    1
     7     4     5    1
     8     5     6    1
     9     5     7    1
    10     5    35    1
    11     7     8    1
    12     8     9   ar
    13     8    13   ar
    14     9    10   ar
    15     9    36    1
    16    10    11   ar
    17    10    26    1
    18    11    12   ar
    19    11    14    1
    20    12    13   ar
    21    12    17    1
    22    13    37    1
    23    14    15    1
    24    14    25    2
    25    15    16    1
    26    15    38    1
    27    15    39    1
    28    16    17    1
    29    16    18    1
    30    16    40    1
    31    18    19   ar
    32    18    23   ar
    33    19    20   ar
    34    19    41    1
    35    20    21   ar
    36    20    42    1
    37    21    22   ar
    38    21    24    1
    39    22    23   ar
    40    22    43    1
    41    23    44    1
    42    24    45    1
    43    26    46    1
    44    27    47    1
    45    28    48    1
    46    29    49    1
    47    30    50    1
    48     1    31    1
    49     1    27    1
    50     2    32    1
    51     2    28    1
    52     4    34    1
    53     4    30    1
