@<TRIPOS>MOLECULE
*****
 50 53 0 0 0
SMALL
GASTEIGER

@<TRIPOS>ATOM
     1 C         -0.338664   -1.332781   1.697 C.3        1 UNL1     0.1889
     2 C         -0.466018   -0.974455   0.1919 C.3        1 UNL1     0.1342
     3 C         -1.906123   -0.955254   -0.343071 C.3        1 UNL1     0.1174
     4 C         -2.796861   -2.013657   0.31228 C.3        1 UNL1     0.1456
     5 C         -2.64728   -2.044551   1.844284 C.3        1 UNL1     0.2326
     6 O         -1.283579   -2.268424   2.195096 O.3        1 UNL1     -0.3076
     7 O         -3.219128   -0.897702   2.499302 O.3        1 UNL1     -0.4605
     8 C         -3.73142   -1.115652   3.765629 C.ar        1 UNL1     0.1310
     9 C         -4.552016   -2.187047   4.134456 C.ar        1 UNL1     0.0226
     10 C         -5.007365   -2.330292   5.450526 C.ar        1 UNL1     0.1343
     11 C         -4.633294   -1.417746   6.436006 C.ar        1 UNL1     0.1007
     12 C         -3.84781   -0.321142   6.07096 C.ar        1 UNL1     0.1389
     13 C         -3.392261   -0.175888   4.747024 C.ar        1 UNL1     0.0229
     14 C         -5.016514   -1.567049   7.859032 C.2        1 UNL1     0.1740
     15 C         -4.345673   -0.624337   8.814446 C.3        1 UNL1     0.0520
     16 C         -4.270689   0.749596   8.162799 C.3        1 UNL1     0.1322
     17 O         -3.510541   0.694254   6.935533 O.3        1 UNL1     -0.4828
     18 C         -5.627354   1.447132   8.037781 C.ar        1 UNL1     -0.0067
     19 C         -6.001531   2.017863   6.803897 C.ar        1 UNL1     -0.0516
     20 C         -7.214228   2.704095   6.668198 C.ar        1 UNL1     -0.0198
     21 C         -8.056204   2.832562   7.758336 C.ar        1 UNL1     0.1169
     22 C         -7.730806   2.252682   8.977636 C.ar        1 UNL1     -0.0198
     23 C         -6.526693   1.550552   9.10871 C.ar        1 UNL1     -0.0516
     24 O         -9.211199   3.540212   7.598274 O.3        1 UNL1     -0.5068
     25 O         -5.768939   -2.447529   8.267808 O.2        1 UNL1     -0.2917
     26 O         -5.805795   -3.396849   5.744722 O.3        1 UNL1     -0.5058
     27 O         -0.230539   -0.197694   2.541201 O.3        1 UNL1     -0.3648
     28 O         0.262135   -1.952863   -0.573095 O.3        1 UNL1     -0.3841
     29 O         -2.459171   0.360004   -0.263282 O.3        1 UNL1     -0.3863
     30 O         -2.453094   -3.313908   -0.213895 O.3        1 UNL1     -0.3829
     31 H         0.620093   -1.849315   1.815556 H        1 UNL1     0.0937
     32 H         0.0   0.0   0.0 H        1 UNL1     0.0671
     33 H         -1.86857   -1.191398   -1.415706 H        1 UNL1     0.0649
     34 H         -3.846042   -1.830888   0.054957 H        1 UNL1     0.0683
     35 H         -3.205439   -2.939516   2.146564 H        1 UNL1     0.1085
     36 H         -4.832143   -2.960401   3.42765 H        1 UNL1     0.0691
     37 H         -2.782856   0.687319   4.488197 H        1 UNL1     0.0691
     38 H         -3.34498   -1.018639   9.021005 H        1 UNL1     0.0385
     39 H         -4.907111   -0.606513   9.754791 H        1 UNL1     0.0385
     40 H         -3.674478   1.390482   8.826364 H        1 UNL1     0.0789
     41 H         -5.353877   1.93871   5.935605 H        1 UNL1     0.0623
     42 H         -7.486027   3.150027   5.714636 H        1 UNL1     0.0654
     43 H         -8.389824   2.334316   9.833756 H        1 UNL1     0.0654
     44 H         -6.309364   1.10126   10.072945 H        1 UNL1     0.0623
     45 H         -8.981414   4.449886   7.348457 H        1 UNL1     0.2921
     46 H         -5.405414   -3.912432   6.462553 H        1 UNL1     0.2922
     47 H         0.512989   0.355837   2.264382 H        1 UNL1     0.2126
     48 H         1.197713   -1.879437   -0.302847 H        1 UNL1     0.2101
     49 H         -2.01763   0.942929   -0.901275 H        1 UNL1     0.2100
     50 H         -2.69042   -3.326946   -1.164273 H        1 UNL1     0.2102
@<TRIPOS>BOND
     1     1     2    1
     2     1     6    1
     3     2     3    1
     4     3     4    1
     5     3    29    1
     6     3    33    1
     7     4     5    1
     8     5     6    1
     9     5     7    1
    10     5    35    1
    11     7     8    1
    12     8     9   ar
    13     8    13   ar
    14     9    10   ar
    15     9    36    1
    16    10    11   ar
    17    10    26    1
    18    11    12   ar
    19    11    14    1
    20    12    13   ar
    21    12    17    1
    22    13    37    1
    23    14    15    1
    24    14    25    2
    25    15    16    1
    26    15    38    1
    27    15    39    1
    28    16    17    1
    29    16    18    1
    30    16    40    1
    31    18    19   ar
    32    18    23   ar
    33    19    20   ar
    34    19    41    1
    35    20    21   ar
    36    20    42    1
    37    21    22   ar
    38    21    24    1
    39    22    23   ar
    40    22    43    1
    41    23    44    1
    42    24    45    1
    43    26    46    1
    44    27    47    1
    45    28    48    1
    46    29    49    1
    47    30    50    1
    48     1    31    1
    49     1    27    1
    50     2    32    1
    51     2    28    1
    52     4    34    1
    53     4    30    1
