@<TRIPOS>MOLECULE
*****
 50 53 0 0 0
SMALL
GASTEIGER

@<TRIPOS>ATOM
     1 C         1.339435   -0.051974   1.724534 C.3        1 UNL1     0.1889
     2 C         0.274369   -0.699619   0.79926 C.3        1 UNL1     0.1342
     3 C         -1.001465   -1.164968   1.517706 C.3        1 UNL1     0.1174
     4 C         -0.728977   -1.694341   2.927895 C.3        1 UNL1     0.1456
     5 C         0.200656   -0.770474   3.735742 C.3        1 UNL1     0.2326
     6 O         1.429797   -0.586323   3.037051 O.3        1 UNL1     -0.3076
     7 O         -0.419771   0.468269   4.125492 O.3        1 UNL1     -0.4605
     8 C         -0.466085   0.721773   5.484579 C.ar        1 UNL1     0.1310
     9 C         -1.590746   0.560985   6.301026 C.ar        1 UNL1     0.0226
     10 C         -1.532614   0.828523   7.67396 C.ar        1 UNL1     0.1343
     11 C         -0.34087   1.240932   8.268524 C.ar        1 UNL1     0.1007
     12 C         0.778128   1.444498   7.45662 C.ar        1 UNL1     0.1389
     13 C         0.718716   1.177959   6.07573 C.ar        1 UNL1     0.0229
     14 C         -0.201249   1.456817   9.727309 C.2        1 UNL1     0.1740
     15 C         1.19863   1.679154   10.219703 C.3        1 UNL1     0.0520
     16 C         1.924171   2.571635   9.222193 C.3        1 UNL1     0.1322
     17 O         1.970721   1.951257   7.918339 O.3        1 UNL1     -0.4828
     18 C         1.429794   4.020185   9.218187 C.ar        1 UNL1     -0.0067
     19 C         2.35857   5.06848   9.05489 C.ar        1 UNL1     -0.0516
     20 C         1.946454   6.405868   9.093831 C.ar        1 UNL1     -0.0198
     21 C         0.61252   6.707529   9.302272 C.ar        1 UNL1     0.1169
     22 C         -0.330859   5.696698   9.433027 C.ar        1 UNL1     -0.0198
     23 C         0.078206   4.359001   9.37569 C.ar        1 UNL1     -0.0516
     24 O         0.254242   8.021751   9.37198 O.3        1 UNL1     -0.5068
     25 O         -1.14108   1.383669   10.514617 O.2        1 UNL1     -0.2917
     26 O         -2.665175   0.652839   8.414248 O.3        1 UNL1     -0.5058
     27 O         1.289162   1.365793   1.738563 O.3        1 UNL1     -0.3648
     28 O         0.858346   -1.856005   0.17121 O.3        1 UNL1     -0.3841
     29 O         -1.998749   -0.141746   1.493773 O.3        1 UNL1     -0.3863
     30 O         -0.118646   -2.999863   2.834105 O.3        1 UNL1     -0.3829
     31 H         2.316523   -0.282824   1.286257 H        1 UNL1     0.0937
     32 H         -0.0   0.0   0.0 H        1 UNL1     0.0671
     33 H         -1.42548   -1.999193   0.941511 H        1 UNL1     0.0649
     34 H         -1.673267   -1.820089   3.469102 H        1 UNL1     0.0683
     35 H         0.430639   -1.350351   4.638366 H        1 UNL1     0.1085
     36 H         -2.531418   0.189816   5.909247 H        1 UNL1     0.0691
     37 H         1.603499   1.345499   5.465334 H        1 UNL1     0.0691
     38 H         1.681897   0.699389   10.297416 H        1 UNL1     0.0385
     39 H         1.160897   2.122294   11.220693 H        1 UNL1     0.0385
     40 H         2.974609   2.623968   9.538992 H        1 UNL1     0.0789
     41 H         3.412651   4.85805   8.89906 H        1 UNL1     0.0623
     42 H         2.674031   7.205455   8.978491 H        1 UNL1     0.0654
     43 H         -1.380265   5.921593   9.581619 H        1 UNL1     0.0654
     44 H         -0.687242   3.59491   9.471078 H        1 UNL1     0.0623
     45 H         -0.64279   8.076009   9.739549 H        1 UNL1     0.2921
     46 H         -2.623508   1.211082   9.206738 H        1 UNL1     0.2922
     47 H         1.302533   1.692297   2.6491 H        1 UNL1     0.2126
     48 H         1.746057   -1.968408   0.562448 H        1 UNL1     0.2101
     49 H         -1.824324   0.505564   2.195457 H        1 UNL1     0.2100
     50 H         0.041678   -3.190376   1.886628 H        1 UNL1     0.2102
@<TRIPOS>BOND
     1     1     2    1
     2     1     6    1
     3     2     3    1
     4     3     4    1
     5     3    29    1
     6     3    33    1
     7     4     5    1
     8     5     6    1
     9     5     7    1
    10     5    35    1
    11     7     8    1
    12     8     9   ar
    13     8    13   ar
    14     9    10   ar
    15     9    36    1
    16    10    11   ar
    17    10    26    1
    18    11    12   ar
    19    11    14    1
    20    12    13   ar
    21    12    17    1
    22    13    37    1
    23    14    15    1
    24    14    25    2
    25    15    16    1
    26    15    38    1
    27    15    39    1
    28    16    17    1
    29    16    18    1
    30    16    40    1
    31    18    19   ar
    32    18    23   ar
    33    19    20   ar
    34    19    41    1
    35    20    21   ar
    36    20    42    1
    37    21    22   ar
    38    21    24    1
    39    22    23   ar
    40    22    43    1
    41    23    44    1
    42    24    45    1
    43    26    46    1
    44    27    47    1
    45    28    48    1
    46    29    49    1
    47    30    50    1
    48     1    31    1
    49     1    27    1
    50     2    32    1
    51     2    28    1
    52     4    34    1
    53     4    30    1
