@<TRIPOS>MOLECULE
*****
 50 53 0 0 0
SMALL
GASTEIGER

@<TRIPOS>ATOM
     1 C         0.077288   -1.599722   -1.485167 C.3        1 UNL1     0.1889
     2 C         0.2587   -1.06542   -0.038947 C.3        1 UNL1     0.1342
     3 C         1.66623   -1.260987   0.545071 C.3        1 UNL1     0.1174
     4 C         2.328549   -2.558693   0.075593 C.3        1 UNL1     0.1456
     5 C         2.192725   -2.77494   -1.44268 C.3        1 UNL1     0.2326
     6 O         0.816034   -2.767124   -1.813529 O.3        1 UNL1     -0.3076
     7 O         2.994482   -1.87086   -2.224439 O.3        1 UNL1     -0.4605
     8 C         4.33606   -1.808954   -1.89298 C.ar        1 UNL1     0.1310
     9 C         5.264502   -2.839294   -2.076542 C.ar        1 UNL1     0.0226
     10 C         6.609025   -2.673349   -1.723524 C.ar        1 UNL1     0.1343
     11 C         7.062947   -1.463539   -1.199925 C.ar        1 UNL1     0.1007
     12 C         6.13726   -0.441397   -0.973844 C.ar        1 UNL1     0.1389
     13 C         4.784898   -0.609419   -1.326429 C.ar        1 UNL1     0.0229
     14 C         8.487734   -1.205103   -0.88792 C.2        1 UNL1     0.1740
     15 C         8.830312   0.215296   -0.546369 C.3        1 UNL1     0.0520
     16 C         7.720905   0.78126   0.329336 C.3        1 UNL1     0.1322
     17 O         6.453979   0.750371   -0.364218 O.3        1 UNL1     -0.4828
     18 C         7.686443   0.188467   1.740057 C.ar        1 UNL1     -0.0067
     19 C         8.513159   -0.911044   2.049618 C.ar        1 UNL1     -0.0516
     20 C         8.471608   -1.507001   3.315743 C.ar        1 UNL1     -0.0198
     21 C         7.604288   -1.018506   4.276449 C.ar        1 UNL1     0.1169
     22 C         6.801978   0.083952   4.012401 C.ar        1 UNL1     -0.0198
     23 C         6.85669   0.691652   2.752336 C.ar        1 UNL1     -0.0516
     24 O         7.564141   -1.648252   5.485668 O.3        1 UNL1     -0.5068
     25 O         9.364689   -2.060686   -0.974007 O.2        1 UNL1     -0.2917
     26 O         7.463338   -3.717534   -1.927026 O.3        1 UNL1     -0.5058
     27 O         0.213201   -0.596957   -2.47954 O.3        1 UNL1     -0.3648
     28 O         -0.662762   -1.759246   0.822574 O.3        1 UNL1     -0.3841
     29 O         2.477723   -0.108631   0.309085 O.3        1 UNL1     -0.3863
     30 O         1.720037   -3.675557   0.759712 O.3        1 UNL1     -0.3829
     31 H         -0.965554   -1.924253   -1.570249 H        1 UNL1     0.0937
     32 H         0.0   0.0   0.0 H        1 UNL1     0.0671
     33 H         1.569286   -1.330818   1.63752 H        1 UNL1     0.0649
     34 H         3.390019   -2.556278   0.347026 H        1 UNL1     0.0683
     35 H         2.559103   -3.797439   -1.598057 H        1 UNL1     0.1085
     36 H         4.985722   -3.783864   -2.530623 H        1 UNL1     0.0691
     37 H         4.083986   0.201238   -1.139209 H        1 UNL1     0.0691
     38 H         8.913828   0.771058   -1.486411 H        1 UNL1     0.0385
     39 H         9.80493   0.239345   -0.04705 H        1 UNL1     0.0385
     40 H         7.93178   1.850238   0.468396 H        1 UNL1     0.0789
     41 H         9.195935   -1.318845   1.309912 H        1 UNL1     0.0623
     42 H         9.105452   -2.361792   3.538421 H        1 UNL1     0.0654
     43 H         6.130087   0.484008   4.762354 H        1 UNL1     0.0654
     44 H         6.223663   1.557579   2.584133 H        1 UNL1     0.0623
     45 H         6.695315   -1.485652   5.887441 H        1 UNL1     0.2921
     46 H         8.367962   -3.442597   -1.709136 H        1 UNL1     0.2922
     47 H         -0.63135   -0.454941   -2.929458 H        1 UNL1     0.2126
     48 H         -0.144569   -2.080562   1.585439 H        1 UNL1     0.2101
     49 H         3.414143   -0.334788   0.426411 H        1 UNL1     0.2100
     50 H         2.169516   -4.493201   0.461151 H        1 UNL1     0.2102
@<TRIPOS>BOND
     1     1     2    1
     2     1     6    1
     3     2     3    1
     4     3     4    1
     5     3    29    1
     6     3    33    1
     7     4     5    1
     8     5     6    1
     9     5     7    1
    10     5    35    1
    11     7     8    1
    12     8     9   ar
    13     8    13   ar
    14     9    10   ar
    15     9    36    1
    16    10    11   ar
    17    10    26    1
    18    11    12   ar
    19    11    14    1
    20    12    13   ar
    21    12    17    1
    22    13    37    1
    23    14    15    1
    24    14    25    2
    25    15    16    1
    26    15    38    1
    27    15    39    1
    28    16    17    1
    29    16    18    1
    30    16    40    1
    31    18    19   ar
    32    18    23   ar
    33    19    20   ar
    34    19    41    1
    35    20    21   ar
    36    20    42    1
    37    21    22   ar
    38    21    24    1
    39    22    23   ar
    40    22    43    1
    41    23    44    1
    42    24    45    1
    43    26    46    1
    44    27    47    1
    45    28    48    1
    46    29    49    1
    47    30    50    1
    48     1    31    1
    49     1    27    1
    50     2    32    1
    51     2    28    1
    52     4    34    1
    53     4    30    1
