@<TRIPOS>MOLECULE
*****
 50 53 0 0 0
SMALL
GASTEIGER

@<TRIPOS>ATOM
     1 C         -0.367409   -1.393746   1.641124 C.3        1 UNL1     0.1889
     2 C         -0.490118   -0.969525   0.152863 C.3        1 UNL1     0.1342
     3 C         -1.930869   -0.891436   -0.374967 C.3        1 UNL1     0.1174
     4 C         -2.846311   -1.953479   0.239156 C.3        1 UNL1     0.1456
     5 C         -2.692958   -2.052353   1.767904 C.3        1 UNL1     0.2326
     6 O         -1.334356   -2.325212   2.103487 O.3        1 UNL1     -0.3076
     7 O         -3.233425   -0.919856   2.472649 O.3        1 UNL1     -0.4605
     8 C         -3.757554   -1.179657   3.726172 C.ar        1 UNL1     0.1310
     9 C         -4.602864   -2.247698   4.045609 C.ar        1 UNL1     0.0226
     10 C         -5.068764   -2.436186   5.35225 C.ar        1 UNL1     0.1343
     11 C         -4.681085   -1.574014   6.377045 C.ar        1 UNL1     0.1007
     12 C         -3.870365   -0.480197   6.062274 C.ar        1 UNL1     0.1389
     13 C         -3.404177   -0.289376   4.747859 C.ar        1 UNL1     0.0229
     14 C         -5.075621   -1.774589   7.790645 C.2        1 UNL1     0.1740
     15 C         -4.390429   -0.887399   8.788119 C.3        1 UNL1     0.0520
     16 C         -4.282481   0.510722   8.195193 C.3        1 UNL1     0.1322
     17 O         -3.516592   0.490572   6.970416 O.3        1 UNL1     -0.4828
     18 C         -5.623263   1.241874   8.092983 C.ar        1 UNL1     -0.0067
     19 C         -5.718893   2.405815   7.302851 C.ar        1 UNL1     -0.0516
     20 C         -6.917523   3.125029   7.225516 C.ar        1 UNL1     -0.0198
     21 C         -8.02306   2.695734   7.937781 C.ar        1 UNL1     0.1169
     22 C         -7.96953   1.534681   8.697997 C.ar        1 UNL1     -0.0198
     23 C         -6.776321   0.805051   8.760842 C.ar        1 UNL1     -0.0516
     24 O         -9.162116   3.442788   7.868054 O.3        1 UNL1     -0.5068
     25 O         -5.848948   -2.655066   8.158354 O.2        1 UNL1     -0.2917
     26 O         -5.891378   -3.496741   5.597434 O.3        1 UNL1     -0.5058
     27 O         -0.227857   -0.298154   2.531624 O.3        1 UNL1     -0.3648
     28 O         0.210563   -1.933133   -0.655352 O.3        1 UNL1     -0.3841
     29 O         -2.44998   0.432908   -0.237974 O.3        1 UNL1     -0.3863
     30 O         -2.537372   -3.238819   -0.342349 O.3        1 UNL1     -0.3829
     31 H         0.578227   -1.938919   1.734062 H        1 UNL1     0.0937
     32 H         0.0   0.0   0.0 H        1 UNL1     0.0671
     33 H         -1.902572   -1.083279   -1.456686 H        1 UNL1     0.0649
     34 H         -3.891264   -1.733563   -0.006022 H        1 UNL1     0.0683
     35 H         -3.27283   -2.944777   2.03475 H        1 UNL1     0.1085
     36 H         -4.895275   -2.984535   3.30555 H        1 UNL1     0.0691
     37 H         -2.775069   0.570633   4.528539 H        1 UNL1     0.0691
     38 H         -3.399557   -1.311425   8.982806 H        1 UNL1     0.0385
     39 H         -4.956793   -0.896963   9.725626 H        1 UNL1     0.0385
     40 H         -3.676629   1.110262   8.888024 H        1 UNL1     0.0789
     41 H         -4.862751   2.768555   6.741522 H        1 UNL1     0.0623
     42 H         -6.975245   4.027649   6.622227 H        1 UNL1     0.0654
     43 H         -8.833663   1.181206   9.247761 H        1 UNL1     0.0654
     44 H         -6.773336   -0.103041   9.355993 H        1 UNL1     0.0623
     45 H         -8.988063   4.306251   8.276531 H        1 UNL1     0.2921
     46 H         -5.517247   -4.038345   6.310248 H        1 UNL1     0.2922
     47 H         0.517777   0.257397   2.264692 H        1 UNL1     0.2126
     48 H         1.163904   -1.783859   -0.505046 H        1 UNL1     0.2101
     49 H         -2.136009   0.987763   -0.969652 H        1 UNL1     0.2100
     50 H         -2.798773   -3.213435   -1.286138 H        1 UNL1     0.2102
@<TRIPOS>BOND
     1     1     2    1
     2     1     6    1
     3     2     3    1
     4     3     4    1
     5     3    29    1
     6     3    33    1
     7     4     5    1
     8     5     6    1
     9     5     7    1
    10     5    35    1
    11     7     8    1
    12     8     9   ar
    13     8    13   ar
    14     9    10   ar
    15     9    36    1
    16    10    11   ar
    17    10    26    1
    18    11    12   ar
    19    11    14    1
    20    12    13   ar
    21    12    17    1
    22    13    37    1
    23    14    15    1
    24    14    25    2
    25    15    16    1
    26    15    38    1
    27    15    39    1
    28    16    17    1
    29    16    18    1
    30    16    40    1
    31    18    19   ar
    32    18    23   ar
    33    19    20   ar
    34    19    41    1
    35    20    21   ar
    36    20    42    1
    37    21    22   ar
    38    21    24    1
    39    22    23   ar
    40    22    43    1
    41    23    44    1
    42    24    45    1
    43    26    46    1
    44    27    47    1
    45    28    48    1
    46    29    49    1
    47    30    50    1
    48     1    31    1
    49     1    27    1
    50     2    32    1
    51     2    28    1
    52     4    34    1
    53     4    30    1
