@<TRIPOS>MOLECULE
*****
 50 53 0 0 0
SMALL
GASTEIGER

@<TRIPOS>ATOM
     1 C         0.05617   -1.575395   1.51188 C.3        1 UNL1     0.1889
     2 C         -0.712039   -0.60936   0.570301 C.3        1 UNL1     0.1342
     3 C         -1.710215   0.318605   1.279519 C.3        1 UNL1     0.1174
     4 C         -2.38776   -0.345618   2.480709 C.3        1 UNL1     0.1456
     5 C         -1.386957   -1.080691   3.390887 C.3        1 UNL1     0.2326
     6 O         -0.667363   -2.053224   2.636412 O.3        1 UNL1     -0.3076
     7 O         -0.530792   -0.194642   4.134676 O.3        1 UNL1     -0.4605
     8 C         0.512892   -0.79221   4.818169 C.ar        1 UNL1     0.1310
     9 C         0.815642   -2.157998   4.801816 C.ar        1 UNL1     0.0226
     10 C         1.907507   -2.66587   5.515819 C.ar        1 UNL1     0.1343
     11 C         2.738059   -1.816021   6.245052 C.ar        1 UNL1     0.1007
     12 C         2.421799   -0.45606   6.302224 C.ar        1 UNL1     0.1389
     13 C         1.322331   0.05397   5.586353 C.ar        1 UNL1     0.0229
     14 C         3.953226   -2.286743   6.949284 C.2        1 UNL1     0.1740
     15 C         4.846877   -1.210588   7.492264 C.3        1 UNL1     0.0520
     16 C         3.973949   -0.112357   8.083739 C.3        1 UNL1     0.1322
     17 O         3.106786   0.452213   7.075594 O.3        1 UNL1     -0.4828
     18 C         3.262753   -0.519653   9.376424 C.ar        1 UNL1     -0.0067
     19 C         4.019962   -0.726979   10.54769 C.ar        1 UNL1     -0.0516
     20 C         3.406965   -1.145871   11.734588 C.ar        1 UNL1     -0.0198
     21 C         2.041678   -1.367483   11.761164 C.ar        1 UNL1     0.1169
     22 C         1.264412   -1.13971   10.632972 C.ar        1 UNL1     -0.0198
     23 C         1.874515   -0.703052   9.450957 C.ar        1 UNL1     -0.0516
     24 O         1.485316   -1.811429   12.924682 O.3        1 UNL1     -0.5068
     25 O         4.273597   -3.469825   7.027802 O.2        1 UNL1     -0.2917
     26 O         2.147856   -4.00774   5.459235 O.3        1 UNL1     -0.5058
     27 O         1.34264   -1.103111   1.878935 O.3        1 UNL1     -0.3648
     28 O         -1.457042   -1.394297   -0.3792 O.3        1 UNL1     -0.3841
     29 O         -1.096115   1.565835   1.610322 O.3        1 UNL1     -0.3863
     30 O         -3.367778   -1.294662   2.006821 O.3        1 UNL1     -0.3829
     31 H         0.257347   -2.482992   0.932334 H        1 UNL1     0.0937
     32 H         0.0   0.0   0.0 H        1 UNL1     0.0671
     33 H         -2.505621   0.566064   0.562711 H        1 UNL1     0.0649
     34 H         -2.926985   0.405492   3.068477 H        1 UNL1     0.0683
     35 H         -2.024113   -1.630615   4.094801 H        1 UNL1     0.1085
     36 H         0.241885   -2.862182   4.209323 H        1 UNL1     0.0691
     37 H         1.096692   1.116398   5.648215 H        1 UNL1     0.0691
     38 H         5.450491   -0.830687   6.661089 H        1 UNL1     0.0385
     39 H         5.523529   -1.646769   8.235007 H        1 UNL1     0.0385
     40 H         4.640342   0.713743   8.366584 H        1 UNL1     0.0789
     41 H         5.094486   -0.568732   10.550276 H        1 UNL1     0.0623
     42 H         4.003414   -1.313756   12.627939 H        1 UNL1     0.0654
     43 H         0.192313   -1.295658   10.646888 H        1 UNL1     0.0654
     44 H         1.23527   -0.524936   8.591606 H        1 UNL1     0.0623
     45 H         0.608657   -1.405115   13.020046 H        1 UNL1     0.2921
     46 H         1.372483   -4.460039   5.09095 H        1 UNL1     0.2922
     47 H         1.284134   -0.196665   2.21179 H        1 UNL1     0.2126
     48 H         -2.088631   -0.786671   -0.810035 H        1 UNL1     0.2101
     49 H         -0.80056   1.553283   2.534596 H        1 UNL1     0.2100
     50 H         -4.094817   -0.791854   1.584551 H        1 UNL1     0.2102
@<TRIPOS>BOND
     1     1     2    1
     2     1     6    1
     3     2     3    1
     4     3     4    1
     5     3    29    1
     6     3    33    1
     7     4     5    1
     8     5     6    1
     9     5     7    1
    10     5    35    1
    11     7     8    1
    12     8     9   ar
    13     8    13   ar
    14     9    10   ar
    15     9    36    1
    16    10    11   ar
    17    10    26    1
    18    11    12   ar
    19    11    14    1
    20    12    13   ar
    21    12    17    1
    22    13    37    1
    23    14    15    1
    24    14    25    2
    25    15    16    1
    26    15    38    1
    27    15    39    1
    28    16    17    1
    29    16    18    1
    30    16    40    1
    31    18    19   ar
    32    18    23   ar
    33    19    20   ar
    34    19    41    1
    35    20    21   ar
    36    20    42    1
    37    21    22   ar
    38    21    24    1
    39    22    23   ar
    40    22    43    1
    41    23    44    1
    42    24    45    1
    43    26    46    1
    44    27    47    1
    45    28    48    1
    46    29    49    1
    47    30    50    1
    48     1    31    1
    49     1    27    1
    50     2    32    1
    51     2    28    1
    52     4    34    1
    53     4    30    1
