@<TRIPOS>MOLECULE
*****
 50 53 0 0 0
SMALL
GASTEIGER

@<TRIPOS>ATOM
     1 C         -0.3368   -1.331919   1.698046 C.3        1 UNL1     0.1889
     2 C         -0.465033   -0.974759   0.192744 C.3        1 UNL1     0.1342
     3 C         -1.905348   -0.957282   -0.341721 C.3        1 UNL1     0.1174
     4 C         -2.794855   -2.016067   0.314686 C.3        1 UNL1     0.1456
     5 C         -2.644693   -2.045756   1.846656 C.3        1 UNL1     0.2326
     6 O         -1.280657   -2.268105   2.197133 O.3        1 UNL1     -0.3076
     7 O         -3.217384   -0.898991   2.501085 O.3        1 UNL1     -0.4605
     8 C         -3.729014   -1.116543   3.767747 C.ar        1 UNL1     0.1310
     9 C         -4.548471   -2.188453   4.137613 C.ar        1 UNL1     0.0226
     10 C         -5.003211   -2.331212   5.453946 C.ar        1 UNL1     0.1343
     11 C         -4.629643   -1.41763   6.438658 C.ar        1 UNL1     0.1007
     12 C         -3.845322   -0.320542   6.072568 C.ar        1 UNL1     0.1389
     13 C         -3.390386   -0.17578   4.748367 C.ar        1 UNL1     0.0229
     14 C         -5.012211   -1.566305   7.861926 C.2        1 UNL1     0.1740
     15 C         -4.341913   -0.6223   8.816443 C.3        1 UNL1     0.0520
     16 C         -4.268455   0.75125   8.163816 C.3        1 UNL1     0.1322
     17 O         -3.508696   0.69577   6.936315 O.3        1 UNL1     -0.4828
     18 C         -5.625819   1.447424   8.038803 C.ar        1 UNL1     -0.0067
     19 C         -6.000977   2.016947   6.804657 C.ar        1 UNL1     -0.0516
     20 C         -7.214367   2.701944   6.66892 C.ar        1 UNL1     -0.0198
     21 C         -8.056071   2.830377   7.759271 C.ar        1 UNL1     0.1169
     22 C         -7.72969   2.25165   8.978856 C.ar        1 UNL1     -0.0198
     23 C         -6.52487   1.550743   9.109983 C.ar        1 UNL1     -0.0516
     24 O         -9.211788   3.53683   7.599134 O.3        1 UNL1     -0.5068
     25 O         -5.763661   -2.447207   8.271583 O.2        1 UNL1     -0.2917
     26 O         -5.800532   -3.398314   5.749171 O.3        1 UNL1     -0.5058
     27 O         -0.229439   -0.196146   2.54142 O.3        1 UNL1     -0.3648
     28 O         0.263764   -1.953013   -0.571834 O.3        1 UNL1     -0.3841
     29 O         -2.459603   0.357511   -0.262646 O.3        1 UNL1     -0.3863
     30 O         -2.450055   -3.31636   -0.210711 O.3        1 UNL1     -0.3829
     31 H         0.622484   -1.847471   1.816615 H        1 UNL1     0.0937
     32 H         0.0   0.0   0.0 H        1 UNL1     0.0671
     33 H         -1.867959   -1.194136   -1.414206 H        1 UNL1     0.0649
     34 H         -3.8443   -1.834463   0.057614 H        1 UNL1     0.0683
     35 H         -3.201902   -2.941036   2.149759 H        1 UNL1     0.1085
     36 H         -4.828124   -2.962559   3.431445 H        1 UNL1     0.0691
     37 H         -2.781886   0.68782   4.488722 H        1 UNL1     0.0691
     38 H         -3.340775   -1.015517   9.022915 H        1 UNL1     0.0385
     39 H         -4.903029   -0.60435   9.756977 H        1 UNL1     0.0385
     40 H         -3.672608   1.393157   8.82672 H        1 UNL1     0.0789
     41 H         -5.353561   1.937799   5.936188 H        1 UNL1     0.0623
     42 H         -7.486928   3.146958   5.715146 H        1 UNL1     0.0654
     43 H         -8.388476   2.333259   9.835157 H        1 UNL1     0.0654
     44 H         -6.306771   1.102325   10.074452 H        1 UNL1     0.0623
     45 H         -8.982948   4.446546   7.348604 H        1 UNL1     0.2921
     46 H         -5.398718   -3.913798   6.466272 H        1 UNL1     0.2922
     47 H         0.513469   0.357891   2.26395 H        1 UNL1     0.2126
     48 H         1.19937   -1.878521   -0.301975 H        1 UNL1     0.2101
     49 H         -2.01884   0.940407   -0.901202 H        1 UNL1     0.2100
     50 H         -2.682486   -3.328363   -1.162312 H        1 UNL1     0.2102
@<TRIPOS>BOND
     1     1     2    1
     2     1     6    1
     3     2     3    1
     4     3     4    1
     5     3    29    1
     6     3    33    1
     7     4     5    1
     8     5     6    1
     9     5     7    1
    10     5    35    1
    11     7     8    1
    12     8     9   ar
    13     8    13   ar
    14     9    10   ar
    15     9    36    1
    16    10    11   ar
    17    10    26    1
    18    11    12   ar
    19    11    14    1
    20    12    13   ar
    21    12    17    1
    22    13    37    1
    23    14    15    1
    24    14    25    2
    25    15    16    1
    26    15    38    1
    27    15    39    1
    28    16    17    1
    29    16    18    1
    30    16    40    1
    31    18    19   ar
    32    18    23   ar
    33    19    20   ar
    34    19    41    1
    35    20    21   ar
    36    20    42    1
    37    21    22   ar
    38    21    24    1
    39    22    23   ar
    40    22    43    1
    41    23    44    1
    42    24    45    1
    43    26    46    1
    44    27    47    1
    45    28    48    1
    46    29    49    1
    47    30    50    1
    48     1    31    1
    49     1    27    1
    50     2    32    1
    51     2    28    1
    52     4    34    1
    53     4    30    1
