@<TRIPOS>MOLECULE
*****
 50 53 0 0 0
SMALL
GASTEIGER

@<TRIPOS>ATOM
     1 C         -0.448931   -1.870233   1.03513 C.3        1 UNL1     0.1889
     2 C         -0.791991   -0.408765   0.639706 C.3        1 UNL1     0.1342
     3 C         -1.017501   0.540543   1.826477 C.3        1 UNL1     0.1174
     4 C         -1.682341   -0.149309   3.020298 C.3        1 UNL1     0.1456
     5 C         -1.033469   -1.504731   3.355203 C.3        1 UNL1     0.2326
     6 O         -1.073237   -2.357959   2.213587 O.3        1 UNL1     -0.3076
     7 O         0.282033   -1.384907   3.926532 O.3        1 UNL1     -0.4605
     8 C         1.142848   -2.44233   3.693331 C.ar        1 UNL1     0.1310
     9 C         0.990635   -3.40496   2.6896 C.ar        1 UNL1     0.0226
     10 C         1.928518   -4.430791   2.52243 C.ar        1 UNL1     0.1343
     11 C         3.054983   -4.505064   3.340599 C.ar        1 UNL1     0.1007
     12 C         3.19666   -3.573595   4.372625 C.ar        1 UNL1     0.1389
     13 C         2.252114   -2.543784   4.542188 C.ar        1 UNL1     0.0229
     14 C         4.119963   -5.517689   3.154689 C.2        1 UNL1     0.1740
     15 C         5.359626   -5.314353   3.975322 C.3        1 UNL1     0.0520
     16 C         4.946196   -4.858097   5.367753 C.3        1 UNL1     0.1322
     17 O         4.208965   -3.617385   5.302995 O.3        1 UNL1     -0.4828
     18 C         4.274325   -5.952493   6.200585 C.ar        1 UNL1     -0.0067
     19 C         3.369236   -6.837778   5.579861 C.ar        1 UNL1     -0.0516
     20 C         2.70167   -7.819565   6.321759 C.ar        1 UNL1     -0.0198
     21 C         2.924496   -7.921328   7.68331 C.ar        1 UNL1     0.1169
     22 C         3.835061   -7.085809   8.317043 C.ar        1 UNL1     -0.0198
     23 C         4.516603   -6.115979   7.572069 C.ar        1 UNL1     -0.0516
     24 O         2.227894   -8.864863   8.379649 O.3        1 UNL1     -0.5068
     25 O         4.052095   -6.427021   2.331893 O.2        1 UNL1     -0.2917
     26 O         1.72113   -5.338675   1.525273 O.3        1 UNL1     -0.5058
     27 O         0.942654   -2.146301   1.027 O.3        1 UNL1     -0.3648
     28 O         -2.004125   -0.418964   -0.137039 O.3        1 UNL1     -0.3841
     29 O         0.195438   1.209046   2.178636 O.3        1 UNL1     -0.3863
     30 O         -3.079728   -0.363966   2.725475 O.3        1 UNL1     -0.3829
     31 H         -0.855692   -2.511607   0.245659 H        1 UNL1     0.0937
     32 H         0.0   0.0   0.0 H        1 UNL1     0.0671
     33 H         -1.702473   1.333803   1.495915 H        1 UNL1     0.0649
     34 H         -1.636746   0.500911   3.900944 H        1 UNL1     0.0683
     35 H         -1.705857   -1.9421   4.103856 H        1 UNL1     0.1085
     36 H         0.166268   -3.369514   1.985836 H        1 UNL1     0.0691
     37 H         2.384699   -1.831751   5.353929 H        1 UNL1     0.0691
     38 H         5.967205   -4.553109   3.474441 H        1 UNL1     0.0385
     39 H         5.931918   -6.248015   3.998455 H        1 UNL1     0.0385
     40 H         5.866021   -4.602853   5.911161 H        1 UNL1     0.0789
     41 H         3.170177   -6.77246   4.514141 H        1 UNL1     0.0623
     42 H         1.99717   -8.488535   5.833732 H        1 UNL1     0.0654
     43 H         4.02837   -7.166718   9.380055 H        1 UNL1     0.0654
     44 H         5.228744   -5.487206   8.097754 H        1 UNL1     0.0623
     45 H         2.826587   -9.602618   8.579651 H        1 UNL1     0.2921
     46 H         0.82932   -5.711858   1.607859 H        1 UNL1     0.2922
     47 H         1.094415   -3.100529   0.979282 H        1 UNL1     0.2126
     48 H         -1.834848   0.129979   -0.926811 H        1 UNL1     0.2101
     49 H         0.291372   1.231855   3.144074 H        1 UNL1     0.2100
     50 H         -3.351309   0.296527   2.054874 H        1 UNL1     0.2102
@<TRIPOS>BOND
     1     1     2    1
     2     1     6    1
     3     2     3    1
     4     3     4    1
     5     3    29    1
     6     3    33    1
     7     4     5    1
     8     5     6    1
     9     5     7    1
    10     5    35    1
    11     7     8    1
    12     8     9   ar
    13     8    13   ar
    14     9    10   ar
    15     9    36    1
    16    10    11   ar
    17    10    26    1
    18    11    12   ar
    19    11    14    1
    20    12    13   ar
    21    12    17    1
    22    13    37    1
    23    14    15    1
    24    14    25    2
    25    15    16    1
    26    15    38    1
    27    15    39    1
    28    16    17    1
    29    16    18    1
    30    16    40    1
    31    18    19   ar
    32    18    23   ar
    33    19    20   ar
    34    19    41    1
    35    20    21   ar
    36    20    42    1
    37    21    22   ar
    38    21    24    1
    39    22    23   ar
    40    22    43    1
    41    23    44    1
    42    24    45    1
    43    26    46    1
    44    27    47    1
    45    28    48    1
    46    29    49    1
    47    30    50    1
    48     1    31    1
    49     1    27    1
    50     2    32    1
    51     2    28    1
    52     4    34    1
    53     4    30    1
