@<TRIPOS>MOLECULE
*****
 50 53 0 0 0
SMALL
GASTEIGER

@<TRIPOS>ATOM
     1 C         0.766729   1.763327   -1.036151 C.3        1 UNL1     0.1889
     2 C         0.906029   0.618597   0.003141 C.3        1 UNL1     0.1342
     3 C         1.188081   1.086891   1.438973 C.3        1 UNL1     0.1174
     4 C         2.069555   2.337168   1.493102 C.3        1 UNL1     0.1456
     5 C         1.610035   3.426447   0.506859 C.3        1 UNL1     0.2326
     6 O         1.585843   2.902762   -0.819051 O.3        1 UNL1     -0.3076
     7 O         0.375299   4.06038   0.887489 O.3        1 UNL1     -0.4605
     8 C         0.10544   5.274541   0.282083 C.ar        1 UNL1     0.1310
     9 C         0.951058   6.389075   0.288817 C.ar        1 UNL1     0.0226
     10 C         0.594697   7.571912   -0.369822 C.ar        1 UNL1     0.1343
     11 C         -0.606526   7.661021   -1.071936 C.ar        1 UNL1     0.1007
     12 C         -1.477719   6.568598   -1.051471 C.ar        1 UNL1     0.1389
     13 C         -1.120353   5.380281   -0.386924 C.ar        1 UNL1     0.0229
     14 C         -0.994774   8.856916   -1.85504 C.2        1 UNL1     0.1740
     15 C         -2.20693   8.697884   -2.725061 C.3        1 UNL1     0.0520
     16 C         -3.246472   7.890373   -1.960053 C.3        1 UNL1     0.1322
     17 O         -2.731324   6.584846   -1.617578 O.3        1 UNL1     -0.4828
     18 C         -3.878363   8.649698   -0.790923 C.ar        1 UNL1     -0.0067
     19 C         -3.084261   8.991357   0.323027 C.ar        1 UNL1     -0.0516
     20 C         -3.641403   9.64374   1.429351 C.ar        1 UNL1     -0.0198
     21 C         -4.989863   9.95265   1.437015 C.ar        1 UNL1     0.1169
     22 C         -5.790644   9.659075   0.34093 C.ar        1 UNL1     -0.0198
     23 C         -5.229862   9.023233   -0.7732 C.ar        1 UNL1     -0.0516
     24 O         -5.50497   10.554073   2.54758 O.3        1 UNL1     -0.5068
     25 O         -0.340023   9.895907   -1.871875 O.2        1 UNL1     -0.2917
     26 O         1.463504   8.622947   -0.32417 O.3        1 UNL1     -0.5058
     27 O         -0.57898   2.128022   -1.298552 O.3        1 UNL1     -0.3648
     28 O         2.000885   -0.22758   -0.394328 O.3        1 UNL1     -0.3841
     29 O         -0.029483   1.235983   2.172078 O.3        1 UNL1     -0.3863
     30 O         3.430796   1.971056   1.178977 O.3        1 UNL1     -0.3829
     31 H         1.129223   1.365426   -1.990275 H        1 UNL1     0.0937
     32 H         0.0   0.0   0.0 H        1 UNL1     0.0671
     33 H         1.740432   0.28624   1.950428 H        1 UNL1     0.0649
     34 H         2.074307   2.747711   2.508894 H        1 UNL1     0.0683
     35 H         2.415246   4.17099   0.541081 H        1 UNL1     0.1085
     36 H         1.922987   6.36452   0.769308 H        1 UNL1     0.0691
     37 H         -1.816718   4.54448   -0.384926 H        1 UNL1     0.0691
     38 H         -1.894456   8.176926   -3.636373 H        1 UNL1     0.0385
     39 H         -2.578327   9.688796   -3.007792 H        1 UNL1     0.0385
     40 H         -4.072742   7.686013   -2.65434 H        1 UNL1     0.0789
     41 H         -2.025166   8.751616   0.345236 H        1 UNL1     0.0623
     42 H         -3.021132   9.891246   2.287264 H        1 UNL1     0.0654
     43 H         -6.8446   9.910015   0.330194 H        1 UNL1     0.0654
     44 H         -5.882599   8.818372   -1.616297 H        1 UNL1     0.0623
     45 H         -4.778261   10.726389   3.167998 H        1 UNL1     0.2921
     46 H         2.368477   8.300781   -0.460715 H        1 UNL1     0.2922
     47 H         -1.088493   1.352866   -1.573125 H        1 UNL1     0.2126
     48 H         2.818918   0.215393   -0.097128 H        1 UNL1     0.2101
     49 H         -0.379784   2.132902   2.051168 H        1 UNL1     0.2100
     50 H         3.543964   1.021184   1.390281 H        1 UNL1     0.2102
@<TRIPOS>BOND
     1     1     2    1
     2     1     6    1
     3     2     3    1
     4     3     4    1
     5     3    29    1
     6     3    33    1
     7     4     5    1
     8     5     6    1
     9     5     7    1
    10     5    35    1
    11     7     8    1
    12     8     9   ar
    13     8    13   ar
    14     9    10   ar
    15     9    36    1
    16    10    11   ar
    17    10    26    1
    18    11    12   ar
    19    11    14    1
    20    12    13   ar
    21    12    17    1
    22    13    37    1
    23    14    15    1
    24    14    25    2
    25    15    16    1
    26    15    38    1
    27    15    39    1
    28    16    17    1
    29    16    18    1
    30    16    40    1
    31    18    19   ar
    32    18    23   ar
    33    19    20   ar
    34    19    41    1
    35    20    21   ar
    36    20    42    1
    37    21    22   ar
    38    21    24    1
    39    22    23   ar
    40    22    43    1
    41    23    44    1
    42    24    45    1
    43    26    46    1
    44    27    47    1
    45    28    48    1
    46    29    49    1
    47    30    50    1
    48     1    31    1
    49     1    27    1
    50     2    32    1
    51     2    28    1
    52     4    34    1
    53     4    30    1
