@<TRIPOS>MOLECULE
*****
 50 53 0 0 0
SMALL
GASTEIGER

@<TRIPOS>ATOM
     1 C         1.209516   0.42554   1.768273 C.3        1 UNL1     0.1889
     2 C         -0.149975   0.373404   1.020607 C.3        1 UNL1     0.1342
     3 C         -0.899683   1.713032   0.95896 C.3        1 UNL1     0.1174
     4 C         -0.703506   2.561419   2.217877 C.3        1 UNL1     0.1456
     5 C         0.770276   2.63339   2.657366 C.3        1 UNL1     0.2326
     6 O         1.278792   1.318483   2.870203 O.3        1 UNL1     -0.3076
     7 O         1.592569   3.422743   1.778686 O.3        1 UNL1     -0.4605
     8 C         2.283014   4.46595   2.369052 C.ar        1 UNL1     0.1310
     9 C         1.739958   5.711632   2.70172 C.ar        1 UNL1     0.0226
     10 C         2.518896   6.700397   3.314502 C.ar        1 UNL1     0.1343
     11 C         3.85493   6.458701   3.63142 C.ar        1 UNL1     0.1007
     12 C         4.419386   5.233402   3.266982 C.ar        1 UNL1     0.1389
     13 C         3.636658   4.240332   2.64845 C.ar        1 UNL1     0.0229
     14 C         4.700786   7.436645   4.354129 C.2        1 UNL1     0.1740
     15 C         6.037583   6.928324   4.808146 C.3        1 UNL1     0.0520
     16 C         6.618836   6.051626   3.707464 C.3        1 UNL1     0.1322
     17 O         5.750747   4.929898   3.433206 O.3        1 UNL1     -0.4828
     18 C         7.058759   6.83165   2.466192 C.ar        1 UNL1     -0.0067
     19 C         6.738919   8.200765   2.359238 C.ar        1 UNL1     -0.0516
     20 C         7.084692   8.932067   1.216609 C.ar        1 UNL1     -0.0198
     21 C         7.742449   8.305426   0.173295 C.ar        1 UNL1     0.1169
     22 C         8.100614   6.966594   0.263221 C.ar        1 UNL1     -0.0198
     23 C         7.771296   6.239619   1.413488 C.ar        1 UNL1     -0.0516
     24 O         8.029354   9.040438   -0.939288 O.3        1 UNL1     -0.5068
     25 O         4.325771   8.569079   4.646435 O.2        1 UNL1     -0.2917
     26 O         1.929251   7.894273   3.612096 O.3        1 UNL1     -0.5058
     27 O         2.324822   0.57284   0.903876 O.3        1 UNL1     -0.3648
     28 O         -1.006402   -0.566085   1.696328 O.3        1 UNL1     -0.3841
     29 O         -0.577276   2.419785   -0.240493 O.3        1 UNL1     -0.3863
     30 O         -1.482103   1.997209   3.295441 O.3        1 UNL1     -0.3829
     31 H         1.352142   -0.558942   2.227111 H        1 UNL1     0.0937
     32 H         0.0   0.0   -0.0 H        1 UNL1     0.0671
     33 H         -1.974084   1.493094   0.888183 H        1 UNL1     0.0649
     34 H         -1.080053   3.576101   2.047486 H        1 UNL1     0.0683
     35 H         0.730085   3.122538   3.63869 H        1 UNL1     0.1085
     36 H         0.693649   5.941136   2.532349 H        1 UNL1     0.0691
     37 H         4.100158   3.295245   2.373728 H        1 UNL1     0.0691
     38 H         5.878943   6.354711   5.727564 H        1 UNL1     0.0385
     39 H         6.684395   7.7803   5.043835 H        1 UNL1     0.0385
     40 H         7.536379   5.597758   4.105761 H        1 UNL1     0.0789
     41 H         6.214821   8.713458   3.16056 H        1 UNL1     0.0623
     42 H         6.821981   9.984344   1.141059 H        1 UNL1     0.0654
     43 H         8.629121   6.469766   -0.54161 H        1 UNL1     0.0654
     44 H         8.075954   5.198288   1.454212 H        1 UNL1     0.0623
     45 H         8.046594   9.978894   -0.690852 H        1 UNL1     0.2921
     46 H         2.114848   8.125369   4.535979 H        1 UNL1     0.2922
     47 H         3.14128   0.341582   1.368392 H        1 UNL1     0.2126
     48 H         -0.637419   -1.453986   1.525399 H        1 UNL1     0.2101
     49 H         -0.588289   1.810407   -0.995695 H        1 UNL1     0.2100
     50 H         -2.025301   1.270253   2.926411 H        1 UNL1     0.2102
@<TRIPOS>BOND
     1     1     2    1
     2     1     6    1
     3     2     3    1
     4     3     4    1
     5     3    29    1
     6     3    33    1
     7     4     5    1
     8     5     6    1
     9     5     7    1
    10     5    35    1
    11     7     8    1
    12     8     9   ar
    13     8    13   ar
    14     9    10   ar
    15     9    36    1
    16    10    11   ar
    17    10    26    1
    18    11    12   ar
    19    11    14    1
    20    12    13   ar
    21    12    17    1
    22    13    37    1
    23    14    15    1
    24    14    25    2
    25    15    16    1
    26    15    38    1
    27    15    39    1
    28    16    17    1
    29    16    18    1
    30    16    40    1
    31    18    19   ar
    32    18    23   ar
    33    19    20   ar
    34    19    41    1
    35    20    21   ar
    36    20    42    1
    37    21    22   ar
    38    21    24    1
    39    22    23   ar
    40    22    43    1
    41    23    44    1
    42    24    45    1
    43    26    46    1
    44    27    47    1
    45    28    48    1
    46    29    49    1
    47    30    50    1
    48     1    31    1
    49     1    27    1
    50     2    32    1
    51     2    28    1
    52     4    34    1
    53     4    30    1
