@<TRIPOS>MOLECULE
*****
 50 53 0 0 0
SMALL
GASTEIGER

@<TRIPOS>ATOM
     1 C         0.90722   -1.930819   -0.468714 C.3        1 UNL1     0.1889
     2 C         -0.260779   -0.911601   -0.551852 C.3        1 UNL1     0.1342
     3 C         -1.609747   -1.438984   -0.03939 C.3        1 UNL1     0.1174
     4 C         -1.815394   -2.927163   -0.332903 C.3        1 UNL1     0.1456
     5 C         -0.580788   -3.775155   0.0235 C.3        1 UNL1     0.2326
     6 O         0.560798   -3.291516   -0.680591 O.3        1 UNL1     -0.3076
     7 O         -0.360765   -3.900073   1.440294 O.3        1 UNL1     -0.4605
     8 C         -1.426072   -4.382771   2.178976 C.ar        1 UNL1     0.1310
     9 C         -2.676986   -3.767057   2.294784 C.ar        1 UNL1     0.0226
     10 C         -3.700511   -4.34504   3.055201 C.ar        1 UNL1     0.1343
     11 C         -3.505402   -5.565964   3.699499 C.ar        1 UNL1     0.1007
     12 C         -2.247465   -6.169957   3.624874 C.ar        1 UNL1     0.1389
     13 C         -1.217649   -5.587276   2.862383 C.ar        1 UNL1     0.0229
     14 C         -4.577998   -6.262673   4.446686 C.2        1 UNL1     0.1740
     15 C         -4.260812   -7.662631   4.883789 C.3        1 UNL1     0.0520
     16 C         -2.817192   -7.701428   5.365881 C.3        1 UNL1     0.1322
     17 O         -1.912559   -7.316391   4.307366 O.3        1 UNL1     -0.4828
     18 C         -2.590369   -6.970474   6.691393 C.ar        1 UNL1     -0.0067
     19 C         -3.431399   -5.894229   7.041505 C.ar        1 UNL1     -0.0516
     20 C         -3.222033   -5.17409   8.223675 C.ar        1 UNL1     -0.0198
     21 C         -2.17297   -5.514877   9.058636 C.ar        1 UNL1     0.1169
     22 C         -1.348106   -6.590913   8.757662 C.ar        1 UNL1     -0.0198
     23 C         -1.568544   -7.322861   7.584753 C.ar        1 UNL1     -0.0516
     24 O         -1.976964   -4.766902   10.182253 O.3        1 UNL1     -0.5068
     25 O         -5.690931   -5.78021   4.639289 O.2        1 UNL1     -0.2917
     26 O         -4.896851   -3.693147   3.128616 O.3        1 UNL1     -0.5058
     27 O         1.716792   -1.770043   0.685205 O.3        1 UNL1     -0.3648
     28 O         -0.442667   -0.537752   -1.930206 O.3        1 UNL1     -0.3841
     29 O         -1.78839   -1.117385   1.341476 O.3        1 UNL1     -0.3863
     30 O         -2.105577   -3.097338   -1.737369 O.3        1 UNL1     -0.3829
     31 H         1.579637   -1.704811   -1.303493 H        1 UNL1     0.0937
     32 H         0.0   0.0   0.0 H        1 UNL1     0.0671
     33 H         -2.405091   -0.897471   -0.570344 H        1 UNL1     0.0649
     34 H         -2.683314   -3.301219   0.221352 H        1 UNL1     0.0683
     35 H         -0.812778   -4.765793   -0.387226 H        1 UNL1     0.1085
     36 H         -2.909385   -2.84536   1.772687 H        1 UNL1     0.0691
     37 H         -0.247033   -6.076872   2.821215 H        1 UNL1     0.0691
     38 H         -4.406625   -8.32027   4.020205 H        1 UNL1     0.0385
     39 H         -4.966647   -7.963159   5.66562 H        1 UNL1     0.0385
     40 H         -2.571579   -8.752768   5.568064 H        1 UNL1     0.0789
     41 H         -4.256163   -5.601212   6.398422 H        1 UNL1     0.0623
     42 H         -3.870163   -4.33867   8.476683 H        1 UNL1     0.0654
     43 H         -0.532894   -6.875834   9.412001 H        1 UNL1     0.0654
     44 H         -0.911291   -8.16398   7.386303 H        1 UNL1     0.0623
     45 H         -2.817356   -4.341626   10.418048 H        1 UNL1     0.2921
     46 H         -4.741267   -2.747747   3.281666 H        1 UNL1     0.2922
     47 H         1.370871   -2.304022   1.413947 H        1 UNL1     0.2126
     48 H         0.206942   0.167156   -2.116873 H        1 UNL1     0.2101
     49 H         -1.552488   -1.881371   1.891448 H        1 UNL1     0.2100
     50 H         -2.572959   -2.294407   -2.048124 H        1 UNL1     0.2102
@<TRIPOS>BOND
     1     1     2    1
     2     1     6    1
     3     2     3    1
     4     3     4    1
     5     3    29    1
     6     3    33    1
     7     4     5    1
     8     5     6    1
     9     5     7    1
    10     5    35    1
    11     7     8    1
    12     8     9   ar
    13     8    13   ar
    14     9    10   ar
    15     9    36    1
    16    10    11   ar
    17    10    26    1
    18    11    12   ar
    19    11    14    1
    20    12    13   ar
    21    12    17    1
    22    13    37    1
    23    14    15    1
    24    14    25    2
    25    15    16    1
    26    15    38    1
    27    15    39    1
    28    16    17    1
    29    16    18    1
    30    16    40    1
    31    18    19   ar
    32    18    23   ar
    33    19    20   ar
    34    19    41    1
    35    20    21   ar
    36    20    42    1
    37    21    22   ar
    38    21    24    1
    39    22    23   ar
    40    22    43    1
    41    23    44    1
    42    24    45    1
    43    26    46    1
    44    27    47    1
    45    28    48    1
    46    29    49    1
    47    30    50    1
    48     1    31    1
    49     1    27    1
    50     2    32    1
    51     2    28    1
    52     4    34    1
    53     4    30    1
