@<TRIPOS>MOLECULE
*****
 50 53 0 0 0
SMALL
GASTEIGER

@<TRIPOS>ATOM
     1 C         -0.390485   -1.381193   1.6464 C.3        1 UNL1     0.1889
     2 C         -0.492278   -0.96835   0.15337 C.3        1 UNL1     0.1342
     3 C         -1.925478   -0.894351   -0.395199 C.3        1 UNL1     0.1174
     4 C         -2.849516   -1.951713   0.214112 C.3        1 UNL1     0.1456
     5 C         -2.717627   -2.038907   1.745571 C.3        1 UNL1     0.2326
     6 O         -1.363884   -2.309142   2.102251 O.3        1 UNL1     -0.3076
     7 O         -3.267852   -0.901086   2.434001 O.3        1 UNL1     -0.4605
     8 C         -3.809529   -1.151332   3.681995 C.ar        1 UNL1     0.1310
     9 C         -4.664845   -2.212975   3.996077 C.ar        1 UNL1     0.0226
     10 C         -5.148585   -2.391951   5.297564 C.ar        1 UNL1     0.1343
     11 C         -4.769321   -1.526509   6.322751 C.ar        1 UNL1     0.1007
     12 C         -3.948507   -0.438874   6.012753 C.ar        1 UNL1     0.1389
     13 C         -3.464366   -0.257609   4.703486 C.ar        1 UNL1     0.0229
     14 C         -5.183149   -1.717397   7.73217 C.2        1 UNL1     0.1740
     15 C         -4.505909   -0.828728   8.733751 C.3        1 UNL1     0.0520
     16 C         -4.382513   0.565609   8.134958 C.3        1 UNL1     0.1322
     17 O         -3.601036   0.534729   6.920293 O.3        1 UNL1     -0.4828
     18 C         -5.717755   1.303607   8.011621 C.ar        1 UNL1     -0.0067
     19 C         -5.968838   2.422721   8.831838 C.ar        1 UNL1     -0.0516
     20 C         -7.197562   3.091528   8.778037 C.ar        1 UNL1     -0.0198
     21 C         -8.183803   2.647551   7.915458 C.ar        1 UNL1     0.1169
     22 C         -7.9543   1.568882   7.071277 C.ar        1 UNL1     -0.0198
     23 C         -6.719012   0.911243   7.111661 C.ar        1 UNL1     -0.0516
     24 O         -9.381212   3.300701   7.917836 O.3        1 UNL1     -0.5068
     25 O         -5.966062   -2.591623   8.094469 O.2        1 UNL1     -0.2917
     26 O         -5.980209   -3.446627   5.537654 O.3        1 UNL1     -0.5058
     27 O         -0.263365   -0.27883   2.530381 O.3        1 UNL1     -0.3648
     28 O         0.219607   -1.938071   -0.637559 O.3        1 UNL1     -0.3841
     29 O         -2.446373   0.430979   -0.275614 O.3        1 UNL1     -0.3863
     30 O         -2.532535   -3.241441   -0.353174 O.3        1 UNL1     -0.3829
     31 H         0.553719   -1.925602   1.756752 H        1 UNL1     0.0937
     32 H         0.0   0.0   0.0 H        1 UNL1     0.0671
     33 H         -1.882024   -1.094445   -1.474918 H        1 UNL1     0.0649
     34 H         -3.890912   -1.733717   -0.04737 H        1 UNL1     0.0683
     35 H         -3.301244   -2.929292   2.011062 H        1 UNL1     0.1085
     36 H         -4.951816   -2.952101   3.256172 H        1 UNL1     0.0691
     37 H         -2.827684   0.597734   4.487808 H        1 UNL1     0.0691
     38 H         -3.520015   -1.257184   8.943431 H        1 UNL1     0.0385
     39 H         -5.084347   -0.830188   9.663904 H        1 UNL1     0.0385
     40 H         -3.782291   1.165459   8.832406 H        1 UNL1     0.0789
     41 H         -5.2143   2.785235   9.523869 H        1 UNL1     0.0623
     42 H         -7.383388   3.945962   9.42412 H        1 UNL1     0.0654
     43 H         -8.714263   1.222182   6.38123 H        1 UNL1     0.0654
     44 H         -6.570365   0.078846   6.430585 H        1 UNL1     0.0623
     45 H         -9.398853   3.911567   7.163351 H        1 UNL1     0.2921
     46 H         -5.776466   -3.82808   6.406213 H        1 UNL1     0.2922
     47 H         0.459587   0.297305   2.245304 H        1 UNL1     0.2126
     48 H         1.170755   -1.787614   -0.475039 H        1 UNL1     0.2101
     49 H         -3.002169   0.496833   0.517196 H        1 UNL1     0.2100
     50 H         -2.780671   -3.223273   -1.300703 H        1 UNL1     0.2102
@<TRIPOS>BOND
     1     1     2    1
     2     1     6    1
     3     2     3    1
     4     3     4    1
     5     3    29    1
     6     3    33    1
     7     4     5    1
     8     5     6    1
     9     5     7    1
    10     5    35    1
    11     7     8    1
    12     8     9   ar
    13     8    13   ar
    14     9    10   ar
    15     9    36    1
    16    10    11   ar
    17    10    26    1
    18    11    12   ar
    19    11    14    1
    20    12    13   ar
    21    12    17    1
    22    13    37    1
    23    14    15    1
    24    14    25    2
    25    15    16    1
    26    15    38    1
    27    15    39    1
    28    16    17    1
    29    16    18    1
    30    16    40    1
    31    18    19   ar
    32    18    23   ar
    33    19    20   ar
    34    19    41    1
    35    20    21   ar
    36    20    42    1
    37    21    22   ar
    38    21    24    1
    39    22    23   ar
    40    22    43    1
    41    23    44    1
    42    24    45    1
    43    26    46    1
    44    27    47    1
    45    28    48    1
    46    29    49    1
    47    30    50    1
    48     1    31    1
    49     1    27    1
    50     2    32    1
    51     2    28    1
    52     4    34    1
    53     4    30    1
