@<TRIPOS>MOLECULE
*****
 50 53 0 0 0
SMALL
GASTEIGER

@<TRIPOS>ATOM
     1 C         -0.078662   -0.378739   2.149691 C.3        1 UNL1     0.1889
     2 C         -0.754105   -0.029583   0.796249 C.3        1 UNL1     0.1342
     3 C         -1.538403   1.291527   0.792962 C.3        1 UNL1     0.1174
     4 C         -2.219916   1.580475   2.1328 C.3        1 UNL1     0.1456
     5 C         -1.281536   1.356669   3.332683 C.3        1 UNL1     0.2326
     6 O         -0.78196   0.021366   3.316603 O.3        1 UNL1     -0.3076
     7 O         -0.243714   2.34784   3.441427 O.3        1 UNL1     -0.4605
     8 C         0.812503   2.030536   4.276443 C.ar        1 UNL1     0.1310
     9 C         0.897718   0.885687   5.076043 C.ar        1 UNL1     0.0226
     10 C         2.020082   0.644418   5.877286 C.ar        1 UNL1     0.1343
     11 C         3.095947   1.53118   5.880214 C.ar        1 UNL1     0.1007
     12 C         3.004813   2.69842   5.117305 C.ar        1 UNL1     0.1389
     13 C         1.875039   2.942097   4.313774 C.ar        1 UNL1     0.0229
     14 C         4.341419   1.283733   6.64292 C.2        1 UNL1     0.1740
     15 C         5.475663   2.223441   6.356581 C.3        1 UNL1     0.0520
     16 C         4.91123   3.63004   6.212184 C.3        1 UNL1     0.1322
     17 O         3.957109   3.691023   5.12913 O.3        1 UNL1     -0.4828
     18 C         4.415824   4.233334   7.528745 C.ar        1 UNL1     -0.0067
     19 C         3.047989   4.145122   7.859592 C.ar        1 UNL1     -0.0516
     20 C         2.553748   4.727426   9.032883 C.ar        1 UNL1     -0.0198
     21 C         3.41389   5.40547   9.878011 C.ar        1 UNL1     0.1169
     22 C         4.771748   5.4806   9.596206 C.ar        1 UNL1     -0.0198
     23 C         5.269384   4.882529   8.432279 C.ar        1 UNL1     -0.0516
     24 O         2.889963   5.992204   10.992301 O.3        1 UNL1     -0.5068
     25 O         4.489808   0.331984   7.404917 O.2        1 UNL1     -0.2917
     26 O         2.040499   -0.490284   6.634662 O.3        1 UNL1     -0.5058
     27 O         1.289796   -0.009399   2.210491 O.3        1 UNL1     -0.3648
     28 O         -1.681995   -1.079445   0.465314 O.3        1 UNL1     -0.3841
     29 O         -0.713211   2.369976   0.347834 O.3        1 UNL1     -0.3863
     30 O         -3.369384   0.717871   2.275373 O.3        1 UNL1     -0.3829
     31 H         -0.066327   -1.47187   2.220343 H        1 UNL1     0.0937
     32 H         0.0   0.0   0.0 H        1 UNL1     0.0671
     33 H         -2.336537   1.205821   0.042392 H        1 UNL1     0.0649
     34 H         -2.589089   2.611892   2.149849 H        1 UNL1     0.0683
     35 H         -1.942571   1.439424   4.204499 H        1 UNL1     0.1085
     36 H         0.119445   0.130431   5.075313 H        1 UNL1     0.0691
     37 H         1.827994   3.85884   3.72994 H        1 UNL1     0.0691
     38 H         5.953673   1.892478   5.428413 H        1 UNL1     0.0385
     39 H         6.212167   2.153744   7.164346 H        1 UNL1     0.0385
     40 H         5.736522   4.278285   5.887853 H        1 UNL1     0.0789
     41 H         2.350824   3.626218   7.208171 H        1 UNL1     0.0623
     42 H         1.494904   4.662782   9.270964 H        1 UNL1     0.0654
     43 H         5.456685   5.996204   10.25872 H        1 UNL1     0.0654
     44 H         6.337291   4.951687   8.248876 H        1 UNL1     0.0623
     45 H         2.43598   5.310211   11.51336 H        1 UNL1     0.2921
     46 H         2.649346   -1.133163   6.237896 H        1 UNL1     0.2922
     47 H         1.756481   -0.322829   1.4232 H        1 UNL1     0.2126
     48 H         -1.368865   -1.883761   0.922215 H        1 UNL1     0.2101
     49 H         -1.088203   2.762092   -0.45679 H        1 UNL1     0.2100
     50 H         -4.016658   1.171296   2.854299 H        1 UNL1     0.2102
@<TRIPOS>BOND
     1     1     2    1
     2     1     6    1
     3     2     3    1
     4     3     4    1
     5     3    29    1
     6     3    33    1
     7     4     5    1
     8     5     6    1
     9     5     7    1
    10     5    35    1
    11     7     8    1
    12     8     9   ar
    13     8    13   ar
    14     9    10   ar
    15     9    36    1
    16    10    11   ar
    17    10    26    1
    18    11    12   ar
    19    11    14    1
    20    12    13   ar
    21    12    17    1
    22    13    37    1
    23    14    15    1
    24    14    25    2
    25    15    16    1
    26    15    38    1
    27    15    39    1
    28    16    17    1
    29    16    18    1
    30    16    40    1
    31    18    19   ar
    32    18    23   ar
    33    19    20   ar
    34    19    41    1
    35    20    21   ar
    36    20    42    1
    37    21    22   ar
    38    21    24    1
    39    22    23   ar
    40    22    43    1
    41    23    44    1
    42    24    45    1
    43    26    46    1
    44    27    47    1
    45    28    48    1
    46    29    49    1
    47    30    50    1
    48     1    31    1
    49     1    27    1
    50     2    32    1
    51     2    28    1
    52     4    34    1
    53     4    30    1
