@<TRIPOS>MOLECULE
*****
 50 53 0 0 0
SMALL
GASTEIGER

@<TRIPOS>ATOM
     1 C         -0.06574   1.133928   1.865661 C.3        1 UNL1     0.1889
     2 C         -0.536019   0.864504   0.410948 C.3        1 UNL1     0.1342
     3 C         -0.374564   2.05547   -0.546129 C.3        1 UNL1     0.1174
     4 C         -0.60683   3.403957   0.139984 C.3        1 UNL1     0.1456
     5 C         0.131681   3.516169   1.486228 C.3        1 UNL1     0.2326
     6 O         -0.267068   2.453721   2.349404 O.3        1 UNL1     -0.3076
     7 O         1.559958   3.627954   1.348943 O.3        1 UNL1     -0.4605
     8 C         2.079282   4.906967   1.438149 C.ar        1 UNL1     0.1310
     9 C         2.767853   5.574831   0.419754 C.ar        1 UNL1     0.0226
     10 C         3.241773   6.879532   0.601568 C.ar        1 UNL1     0.1343
     11 C         3.017569   7.557419   1.799084 C.ar        1 UNL1     0.1007
     12 C         2.367133   6.886158   2.837894 C.ar        1 UNL1     0.1389
     13 C         1.893027   5.573344   2.655757 C.ar        1 UNL1     0.0229
     14 C         3.422519   8.965766   2.015247 C.2        1 UNL1     0.1740
     15 C         2.907012   9.604053   3.271587 C.3        1 UNL1     0.0520
     16 C         2.987384   8.58348   4.398498 C.3        1 UNL1     0.1322
     17 O         2.188764   7.418887   4.093542 O.3        1 UNL1     -0.4828
     18 C         4.417273   8.272352   4.847209 C.ar        1 UNL1     -0.0067
     19 C         5.163856   9.263137   5.517412 C.ar        1 UNL1     -0.0516
     20 C         6.490041   9.027798   5.899263 C.ar        1 UNL1     -0.0198
     21 C         7.082061   7.811194   5.610793 C.ar        1 UNL1     0.1169
     22 C         6.362045   6.803848   4.981769 C.ar        1 UNL1     -0.0198
     23 C         5.030037   7.03236   4.616267 C.ar        1 UNL1     -0.0516
     24 O         8.387157   7.631821   5.964277 O.3        1 UNL1     -0.5068
     25 O         4.069044   9.616359   1.198411 O.2        1 UNL1     -0.2917
     26 O         3.906675   7.474383   -0.430732 O.3        1 UNL1     -0.5058
     27 O         1.25073   0.674945   2.128393 O.3        1 UNL1     -0.3648
     28 O         -1.934652   0.524321   0.439359 O.3        1 UNL1     -0.3841
     29 O         0.878964   1.990703   -1.229214 O.3        1 UNL1     -0.3863
     30 O         -2.021496   3.580734   0.37055 O.3        1 UNL1     -0.3829
     31 H         -0.699499   0.522815   2.517556 H        1 UNL1     0.0937
     32 H         0.0   0.0   -0.0 H        1 UNL1     0.0671
     33 H         -1.139143   1.961835   -1.329948 H        1 UNL1     0.0649
     34 H         -0.285035   4.218719   -0.518053 H        1 UNL1     0.0683
     35 H         -0.255477   4.444931   1.923709 H        1 UNL1     0.1085
     36 H         2.925262   5.122985   -0.553477 H        1 UNL1     0.0691
     37 H         1.390733   5.072329   3.480486 H        1 UNL1     0.0691
     38 H         1.871147   9.908378   3.08748 H        1 UNL1     0.0385
     39 H         3.49498   10.503313   3.484667 H        1 UNL1     0.0385
     40 H         2.498416   9.029857   5.274956 H        1 UNL1     0.0789
     41 H         4.724848   10.229627   5.74724 H        1 UNL1     0.0623
     42 H         7.059051   9.804036   6.404926 H        1 UNL1     0.0654
     43 H         6.811191   5.842087   4.764524 H        1 UNL1     0.0654
     44 H         4.494195   6.219356   4.13591 H        1 UNL1     0.0623
     45 H         8.897041   8.397501   5.653682 H        1 UNL1     0.2921
     46 H         4.148807   6.803767   -1.088803 H        1 UNL1     0.2922
     47 H         1.232577   -0.037686   2.782372 H        1 UNL1     0.2126
     48 H         -2.215927   0.575076   1.37319 H        1 UNL1     0.2101
     49 H         1.018646   1.096102   -1.578457 H        1 UNL1     0.2100
     50 H         -2.48837   3.408284   -0.473253 H        1 UNL1     0.2102
@<TRIPOS>BOND
     1     1     2    1
     2     1     6    1
     3     2     3    1
     4     3     4    1
     5     3    29    1
     6     3    33    1
     7     4     5    1
     8     5     6    1
     9     5     7    1
    10     5    35    1
    11     7     8    1
    12     8     9   ar
    13     8    13   ar
    14     9    10   ar
    15     9    36    1
    16    10    11   ar
    17    10    26    1
    18    11    12   ar
    19    11    14    1
    20    12    13   ar
    21    12    17    1
    22    13    37    1
    23    14    15    1
    24    14    25    2
    25    15    16    1
    26    15    38    1
    27    15    39    1
    28    16    17    1
    29    16    18    1
    30    16    40    1
    31    18    19   ar
    32    18    23   ar
    33    19    20   ar
    34    19    41    1
    35    20    21   ar
    36    20    42    1
    37    21    22   ar
    38    21    24    1
    39    22    23   ar
    40    22    43    1
    41    23    44    1
    42    24    45    1
    43    26    46    1
    44    27    47    1
    45    28    48    1
    46    29    49    1
    47    30    50    1
    48     1    31    1
    49     1    27    1
    50     2    32    1
    51     2    28    1
    52     4    34    1
    53     4    30    1
