@<TRIPOS>MOLECULE
*****
 50 53 0 0 0
SMALL
GASTEIGER

@<TRIPOS>ATOM
     1 C         -0.119686   0.907878   1.982987 C.3        1 UNL1     0.1889
     2 C         0.380118   -0.194226   1.010618 C.3        1 UNL1     0.1342
     3 C         0.006987   -1.627426   1.419489 C.3        1 UNL1     0.1174
     4 C         0.005635   -1.830465   2.936687 C.3        1 UNL1     0.1456
     5 C         -0.731673   -0.703209   3.682365 C.3        1 UNL1     0.2326
     6 O         -0.147924   0.556658   3.358575 O.3        1 UNL1     -0.3076
     7 O         -2.158516   -0.730347   3.496079 O.3        1 UNL1     -0.4605
     8 C         -2.917606   -0.279938   4.561181 C.ar        1 UNL1     0.1310
     9 C         -2.716421   -0.62363   5.902338 C.ar        1 UNL1     0.0226
     10 C         -3.53066   -0.099999   6.913638 C.ar        1 UNL1     0.1343
     11 C         -4.551821   0.799538   6.610479 C.ar        1 UNL1     0.1007
     12 C         -4.788577   1.118421   5.270687 C.ar        1 UNL1     0.1389
     13 C         -3.971409   0.589722   4.253759 C.ar        1 UNL1     0.0229
     14 C         -5.387948   1.447894   7.647147 C.2        1 UNL1     0.1740
     15 C         -6.283043   2.550694   7.163219 C.3        1 UNL1     0.0520
     16 C         -6.876214   2.136891   5.82349 C.3        1 UNL1     0.1322
     17 O         -5.833713   1.907699   4.849975 O.3        1 UNL1     -0.4828
     18 C         -7.906054   1.009355   5.927497 C.ar        1 UNL1     -0.0067
     19 C         -8.310443   0.330862   4.759451 C.ar        1 UNL1     -0.0516
     20 C         -9.284982   -0.672829   4.812735 C.ar        1 UNL1     -0.0198
     21 C         -9.866714   -1.001441   6.02411 C.ar        1 UNL1     0.1169
     22 C         -9.465383   -0.374399   7.196539 C.ar        1 UNL1     -0.0198
     23 C         -8.47762   0.616486   7.14625 C.ar        1 UNL1     -0.0516
     24 O         -10.839444   -1.95755   6.031409 O.3        1 UNL1     -0.5068
     25 O         -5.31455   1.175821   8.842585 O.2        1 UNL1     -0.2917
     26 O         -3.282575   -0.476039   8.201517 O.3        1 UNL1     -0.5058
     27 O         -1.334214   1.515543   1.572557 O.3        1 UNL1     -0.3648
     28 O         1.816789   -0.127643   0.945417 O.3        1 UNL1     -0.3841
     29 O         -1.220859   -2.02614   0.806664 O.3        1 UNL1     -0.3863
     30 O         1.369468   -1.88446   3.408632 O.3        1 UNL1     -0.3829
     31 H         0.615383   1.719036   1.940861 H        1 UNL1     0.0937
     32 H         0.0   0.0   0.0 H        1 UNL1     0.0671
     33 H         0.770672   -2.302799   1.009152 H        1 UNL1     0.0649
     34 H         -0.457759   -2.791731   3.18495 H        1 UNL1     0.0683
     35 H         -0.509142   -0.895612   4.739408 H        1 UNL1     0.1085
     36 H         -1.904446   -1.273987   6.208693 H        1 UNL1     0.0691
     37 H         -4.17721   0.852719   3.218398 H        1 UNL1     0.0691
     38 H         -5.671325   3.453552   7.062343 H        1 UNL1     0.0385
     39 H         -7.054994   2.742919   7.91616 H        1 UNL1     0.0385
     40 H         -7.430372   3.001565   5.433915 H        1 UNL1     0.0789
     41 H         -7.875569   0.576665   3.795026 H        1 UNL1     0.0623
     42 H         -9.596901   -1.180454   3.90332 H        1 UNL1     0.0654
     43 H         -9.903574   -0.634492   8.152703 H        1 UNL1     0.0654
     44 H         -8.180774   1.078128   8.083061 H        1 UNL1     0.0623
     45 H         -11.601675   -1.623405   5.531341 H        1 UNL1     0.2921
     46 H         -3.325889   0.3019   8.779745 H        1 UNL1     0.2922
     47 H         -1.249753   1.857497   0.671562 H        1 UNL1     0.2126
     48 H         2.036671   0.674833   0.434128 H        1 UNL1     0.2101
     49 H         -1.054788   -2.323772   -0.101978 H        1 UNL1     0.2100
     50 H         1.777877   -2.702731   3.057424 H        1 UNL1     0.2102
@<TRIPOS>BOND
     1     1     2    1
     2     1     6    1
     3     2     3    1
     4     3     4    1
     5     3    29    1
     6     3    33    1
     7     4     5    1
     8     5     6    1
     9     5     7    1
    10     5    35    1
    11     7     8    1
    12     8     9   ar
    13     8    13   ar
    14     9    10   ar
    15     9    36    1
    16    10    11   ar
    17    10    26    1
    18    11    12   ar
    19    11    14    1
    20    12    13   ar
    21    12    17    1
    22    13    37    1
    23    14    15    1
    24    14    25    2
    25    15    16    1
    26    15    38    1
    27    15    39    1
    28    16    17    1
    29    16    18    1
    30    16    40    1
    31    18    19   ar
    32    18    23   ar
    33    19    20   ar
    34    19    41    1
    35    20    21   ar
    36    20    42    1
    37    21    22   ar
    38    21    24    1
    39    22    23   ar
    40    22    43    1
    41    23    44    1
    42    24    45    1
    43    26    46    1
    44    27    47    1
    45    28    48    1
    46    29    49    1
    47    30    50    1
    48     1    31    1
    49     1    27    1
    50     2    32    1
    51     2    28    1
    52     4    34    1
    53     4    30    1
