@<TRIPOS>MOLECULE
*****
 50 53 0 0 0
SMALL
GASTEIGER

@<TRIPOS>ATOM
     1 C         -1.493961   -1.437859   0.686619 C.3        1 UNL1     0.1889
     2 C         -0.163799   -0.657168   0.863054 C.3        1 UNL1     0.1342
     3 C         1.076922   -1.541092   1.062444 C.3        1 UNL1     0.1174
     4 C         0.777129   -2.814026   1.857981 C.3        1 UNL1     0.1456
     5 C         -0.49098   -3.533876   1.363935 C.3        1 UNL1     0.2326
     6 O         -1.606494   -2.647763   1.421373 O.3        1 UNL1     -0.3076
     7 O         -0.330769   -4.159294   0.077659 O.3        1 UNL1     -0.4605
     8 C         -1.427473   -4.104939   -0.763657 C.ar        1 UNL1     0.1310
     9 C         -1.408023   -4.364925   -2.138186 C.ar        1 UNL1     0.0226
     10 C         -2.578433   -4.300321   -2.903607 C.ar        1 UNL1     0.1343
     11 C         -3.802064   -3.997143   -2.308082 C.ar        1 UNL1     0.1007
     12 C         -3.827297   -3.695408   -0.94386 C.ar        1 UNL1     0.1389
     13 C         -2.649879   -3.757848   -0.174953 C.ar        1 UNL1     0.0229
     14 C         -5.082305   -3.997363   -3.053157 C.2        1 UNL1     0.1740
     15 C         -6.320926   -3.870643   -2.215715 C.3        1 UNL1     0.0520
     16 C         -6.055487   -2.854311   -1.11364 C.3        1 UNL1     0.1322
     17 O         -4.95671   -3.27963   -0.27766 O.3        1 UNL1     -0.4828
     18 C         -5.948329   -1.412978   -1.617426 C.ar        1 UNL1     -0.0067
     19 C         -7.120964   -0.713125   -1.968634 C.ar        1 UNL1     -0.0516
     20 C         -7.054909   0.589451   -2.477452 C.ar        1 UNL1     -0.0198
     21 C         -5.824603   1.199089   -2.646319 C.ar        1 UNL1     0.1169
     22 C         -4.654342   0.54807   -2.278214 C.ar        1 UNL1     -0.0198
     23 C         -4.721326   -0.747603   -1.752096 C.ar        1 UNL1     -0.0516
     24 O         -5.79719   2.454014   -3.179998 O.3        1 UNL1     -0.5068
     25 O         -5.158179   -4.169299   -4.266897 O.2        1 UNL1     -0.2917
     26 O         -2.491329   -4.563872   -4.239473 O.3        1 UNL1     -0.5058
     27 O         -1.871796   -1.611744   -0.669771 O.3        1 UNL1     -0.3648
     28 O         -0.280285   0.18585   2.024284 O.3        1 UNL1     -0.3841
     29 O         1.715999   -1.807365   -0.187681 O.3        1 UNL1     -0.3863
     30 O         0.604264   -2.472673   3.250563 O.3        1 UNL1     -0.3829
     31 H         -2.284767   -0.807783   1.108175 H        1 UNL1     0.0937
     32 H         0.0   0.0   0.0 H        1 UNL1     0.0671
     33 H         1.808137   -0.965684   1.64721 H        1 UNL1     0.0649
     34 H         1.628797   -3.500798   1.799624 H        1 UNL1     0.0683
     35 H         -0.663349   -4.312899   2.117122 H        1 UNL1     0.1085
     36 H         -0.498648   -4.660633   -2.649766 H        1 UNL1     0.0691
     37 H         -2.696019   -3.517338   0.885009 H        1 UNL1     0.0691
     38 H         -6.540315   -4.858727   -1.797282 H        1 UNL1     0.0385
     39 H         -7.159107   -3.576867   -2.85675 H        1 UNL1     0.0385
     40 H         -6.928077   -2.86486   -0.44656 H        1 UNL1     0.0789
     41 H         -8.09821   -1.173044   -1.854116 H        1 UNL1     0.0623
     42 H         -7.965494   1.114221   -2.755774 H        1 UNL1     0.0654
     43 H         -3.686634   1.02185   -2.392163 H        1 UNL1     0.0654
     44 H         -3.787966   -1.222366   -1.465243 H        1 UNL1     0.0623
     45 H         -6.585199   2.933472   -2.876883 H        1 UNL1     0.2921
     46 H         -3.380244   -4.561326   -4.628363 H        1 UNL1     0.2922
     47 H         -2.147793   -0.76674   -1.051417 H        1 UNL1     0.2126
     48 H         0.596135   0.593817   2.162787 H        1 UNL1     0.2101
     49 H         1.207047   -2.467644   -0.684465 H        1 UNL1     0.2100
     50 H         -0.338834   -2.607019   3.479105 H        1 UNL1     0.2102
@<TRIPOS>BOND
     1     1     2    1
     2     1     6    1
     3     2     3    1
     4     3     4    1
     5     3    29    1
     6     3    33    1
     7     4     5    1
     8     5     6    1
     9     5     7    1
    10     5    35    1
    11     7     8    1
    12     8     9   ar
    13     8    13   ar
    14     9    10   ar
    15     9    36    1
    16    10    11   ar
    17    10    26    1
    18    11    12   ar
    19    11    14    1
    20    12    13   ar
    21    12    17    1
    22    13    37    1
    23    14    15    1
    24    14    25    2
    25    15    16    1
    26    15    38    1
    27    15    39    1
    28    16    17    1
    29    16    18    1
    30    16    40    1
    31    18    19   ar
    32    18    23   ar
    33    19    20   ar
    34    19    41    1
    35    20    21   ar
    36    20    42    1
    37    21    22   ar
    38    21    24    1
    39    22    23   ar
    40    22    43    1
    41    23    44    1
    42    24    45    1
    43    26    46    1
    44    27    47    1
    45    28    48    1
    46    29    49    1
    47    30    50    1
    48     1    31    1
    49     1    27    1
    50     2    32    1
    51     2    28    1
    52     4    34    1
    53     4    30    1
