@<TRIPOS>MOLECULE
*****
 50 53 0 0 0
SMALL
GASTEIGER

@<TRIPOS>ATOM
     1 C         0.531722   0.613337   -2.02778 C.3        1 UNL1     0.1889
     2 C         -0.226902   0.822499   -0.689617 C.3        1 UNL1     0.1342
     3 C         -1.751306   0.95245   -0.830229 C.3        1 UNL1     0.1174
     4 C         -2.169665   1.670974   -2.115459 C.3        1 UNL1     0.1456
     5 C         -1.420613   1.147888   -3.354679 C.3        1 UNL1     0.2326
     6 O         -0.013605   1.272952   -3.160883 O.3        1 UNL1     -0.3076
     7 O         -1.821812   -0.176428   -3.750339 O.3        1 UNL1     -0.4605
     8 C         -2.056565   -1.071353   -2.721977 C.ar        1 UNL1     0.1310
     9 C         -1.121507   -1.973896   -2.203921 C.ar        1 UNL1     0.0226
     10 C         -1.451146   -2.830503   -1.146818 C.ar        1 UNL1     0.1343
     11 C         -2.717832   -2.788654   -0.565787 C.ar        1 UNL1     0.1007
     12 C         -3.672824   -1.920403   -1.101432 C.ar        1 UNL1     0.1389
     13 C         -3.34194   -1.061056   -2.166077 C.ar        1 UNL1     0.0229
     14 C         -3.093328   -3.611548   0.607244 C.2        1 UNL1     0.1740
     15 C         -4.413661   -3.278918   1.237821 C.3        1 UNL1     0.0520
     16 C         -5.417131   -2.988876   0.130175 C.3        1 UNL1     0.1322
     17 O         -4.980782   -1.873711   -0.677957 O.3        1 UNL1     -0.4828
     18 C         -5.828909   -4.228124   -0.668216 C.ar        1 UNL1     -0.0067
     19 C         -5.227885   -4.477245   -1.919185 C.ar        1 UNL1     -0.0516
     20 C         -5.615438   -5.575313   -2.696367 C.ar        1 UNL1     -0.0198
     21 C         -6.605811   -6.425579   -2.238069 C.ar        1 UNL1     0.1169
     22 C         -7.192747   -6.22554   -0.995359 C.ar        1 UNL1     -0.0198
     23 C         -6.792352   -5.138069   -0.209772 C.ar        1 UNL1     -0.0516
     24 O         -6.983685   -7.462728   -3.039276 O.3        1 UNL1     -0.5068
     25 O         -2.356511   -4.461241   1.100809 O.2        1 UNL1     -0.2917
     26 O         -0.493937   -3.68795   -0.688429 O.3        1 UNL1     -0.5058
     27 O         0.825415   -0.746785   -2.304547 O.3        1 UNL1     -0.3648
     28 O         0.251843   2.035   -0.078593 O.3        1 UNL1     -0.3841
     29 O         -2.384986   -0.31904   -0.675647 O.3        1 UNL1     -0.3863
     30 O         -1.905626   3.083928   -1.975698 O.3        1 UNL1     -0.3829
     31 H         1.51439   1.082194   -1.906883 H        1 UNL1     0.0937
     32 H         0.0   0.0   0.0 H        1 UNL1     0.0671
     33 H         -2.11453   1.563299   0.008014 H        1 UNL1     0.0649
     34 H         -3.248464   1.560381   -2.271543 H        1 UNL1     0.0683
     35 H         -1.697218   1.853288   -4.148266 H        1 UNL1     0.1085
     36 H         -0.103317   -2.015872   -2.574928 H        1 UNL1     0.0691
     37 H         -4.10377   -0.395229   -2.565804 H        1 UNL1     0.0691
     38 H         -4.264379   -2.400966   1.875349 H        1 UNL1     0.0385
     39 H         -4.728316   -4.113654   1.873421 H        1 UNL1     0.0385
     40 H         -6.338229   -2.634626   0.612468 H        1 UNL1     0.0789
     41 H         -4.454646   -3.819459   -2.305279 H        1 UNL1     0.0623
     42 H         -5.15286   -5.749963   -3.664629 H        1 UNL1     0.0654
     43 H         -7.958605   -6.893823   -0.620164 H        1 UNL1     0.0654
     44 H         -7.264655   -5.018134   0.760481 H        1 UNL1     0.0623
     45 H         -6.438054   -7.444596   -3.842192 H        1 UNL1     0.2921
     46 H         0.129678   -3.889115   -1.404005 H        1 UNL1     0.2922
     47 H         1.781498   -0.89322   -2.286641 H        1 UNL1     0.2126
     48 H         -0.537293   2.559188   0.158523 H        1 UNL1     0.2101
     49 H         -2.582756   -0.477488   0.261143 H        1 UNL1     0.2100
     50 H         -2.197384   3.528029   -2.79872 H        1 UNL1     0.2102
@<TRIPOS>BOND
     1     1     2    1
     2     1     6    1
     3     2     3    1
     4     3     4    1
     5     3    29    1
     6     3    33    1
     7     4     5    1
     8     5     6    1
     9     5     7    1
    10     5    35    1
    11     7     8    1
    12     8     9   ar
    13     8    13   ar
    14     9    10   ar
    15     9    36    1
    16    10    11   ar
    17    10    26    1
    18    11    12   ar
    19    11    14    1
    20    12    13   ar
    21    12    17    1
    22    13    37    1
    23    14    15    1
    24    14    25    2
    25    15    16    1
    26    15    38    1
    27    15    39    1
    28    16    17    1
    29    16    18    1
    30    16    40    1
    31    18    19   ar
    32    18    23   ar
    33    19    20   ar
    34    19    41    1
    35    20    21   ar
    36    20    42    1
    37    21    22   ar
    38    21    24    1
    39    22    23   ar
    40    22    43    1
    41    23    44    1
    42    24    45    1
    43    26    46    1
    44    27    47    1
    45    28    48    1
    46    29    49    1
    47    30    50    1
    48     1    31    1
    49     1    27    1
    50     2    32    1
    51     2    28    1
    52     4    34    1
    53     4    30    1
