@<TRIPOS>MOLECULE
*****
 50 53 0 0 0
SMALL
GASTEIGER

@<TRIPOS>ATOM
     1 C         -0.211438   -1.226776   1.794748 C.3        1 UNL1     0.1889
     2 C         -0.523299   -0.914221   0.306463 C.3        1 UNL1     0.1342
     3 C         -2.017834   -0.769094   -0.018759 C.3        1 UNL1     0.1174
     4 C         -2.899408   -1.706241   0.810519 C.3        1 UNL1     0.1456
     5 C         -2.530621   -1.694532   2.30525 C.3        1 UNL1     0.2326
     6 O         -1.157736   -2.042299   2.469907 O.3        1 UNL1     -0.3076
     7 O         -2.888801   -0.471756   2.974465 O.3        1 UNL1     -0.4605
     8 C         -3.239347   -0.590401   4.307345 C.ar        1 UNL1     0.1310
     9 C         -4.103366   -1.555895   4.835165 C.ar        1 UNL1     0.0226
     10 C         -4.383455   -1.60457   6.205962 C.ar        1 UNL1     0.1343
     11 C         -3.787074   -0.702861   7.086355 C.ar        1 UNL1     0.1007
     12 C         -2.954615   0.291517   6.565772 C.ar        1 UNL1     0.1389
     13 C         -2.675221   0.341894   5.187065 C.ar        1 UNL1     0.0229
     14 C         -3.981841   -0.761445   8.553593 C.2        1 UNL1     0.1740
     15 C         -3.094231   0.137924   9.36281 C.3        1 UNL1     0.0520
     16 C         -2.973999   1.472844   8.640667 C.3        1 UNL1     0.1322
     17 O         -2.401045   1.29512   7.326434 O.3        1 UNL1     -0.4828
     18 C         -4.258567   2.304705   8.665471 C.ar        1 UNL1     -0.0067
     19 C         -4.298544   3.537588   7.98238 C.ar        1 UNL1     -0.0516
     20 C         -5.441361   4.345172   8.024086 C.ar        1 UNL1     -0.0198
     21 C         -6.545583   3.935433   8.749783 C.ar        1 UNL1     0.1169
     22 C         -6.548579   2.711083   9.405373 C.ar        1 UNL1     -0.0198
     23 C         -5.412556   1.894818   9.348624 C.ar        1 UNL1     -0.0516
     24 O         -7.626622   4.765719   8.798553 O.3        1 UNL1     -0.5068
     25 O         -4.754122   -1.542999   9.102448 O.2        1 UNL1     -0.2917
     26 O         -5.235518   -2.570183   6.6567 O.3        1 UNL1     -0.5058
     27 O         0.126508   -0.077589   2.554977 O.3        1 UNL1     -0.3648
     28 O         -0.011329   -1.989543   -0.502409 O.3        1 UNL1     -0.3841
     29 O         -2.425778   0.597565   0.070434 O.3        1 UNL1     -0.3863
     30 O         -2.7615   -3.053527   0.309028 O.3        1 UNL1     -0.3829
     31 H         0.700901   -1.83312   1.802535 H        1 UNL1     0.0937
     32 H         0.0   0.0   0.0 H        1 UNL1     0.0671
     33 H         -2.160427   -1.047993   -1.072136 H        1 UNL1     0.0649
     34 H         -3.952813   -1.427742   0.695726 H        1 UNL1     0.0683
     35 H         -3.120926   -2.516228   2.729789 H        1 UNL1     0.1085
     36 H         -4.554604   -2.319494   4.211129 H        1 UNL1     0.0691
     37 H         -2.024745   1.126562   4.806709 H        1 UNL1     0.0691
     38 H         -2.118856   -0.352229   9.451807 H        1 UNL1     0.0385
     39 H         -3.514996   0.247458   10.368165 H        1 UNL1     0.0385
     40 H         -2.230533   2.069981   9.185833 H        1 UNL1     0.0789
     41 H         -3.44153   3.885845   7.413263 H        1 UNL1     0.0623
     42 H         -5.455592   5.29924   7.50297 H        1 UNL1     0.0654
     43 H         -7.413333   2.373625   9.96415 H        1 UNL1     0.0654
     44 H         -5.45361   0.939967   9.863812 H        1 UNL1     0.0623
     45 H         -7.358641   5.593098   9.230234 H        1 UNL1     0.2921
     46 H         -4.800415   -3.085722   7.354064 H        1 UNL1     0.2922
     47 H         0.858953   0.396675   2.137294 H        1 UNL1     0.2126
     48 H         0.958986   -1.985121   -0.391945 H        1 UNL1     0.2101
     49 H         -2.036082   1.106515   -0.658195 H        1 UNL1     0.2100
     50 H         -3.135649   -3.078136   -0.596024 H        1 UNL1     0.2102
@<TRIPOS>BOND
     1     1     2    1
     2     1     6    1
     3     2     3    1
     4     3     4    1
     5     3    29    1
     6     3    33    1
     7     4     5    1
     8     5     6    1
     9     5     7    1
    10     5    35    1
    11     7     8    1
    12     8     9   ar
    13     8    13   ar
    14     9    10   ar
    15     9    36    1
    16    10    11   ar
    17    10    26    1
    18    11    12   ar
    19    11    14    1
    20    12    13   ar
    21    12    17    1
    22    13    37    1
    23    14    15    1
    24    14    25    2
    25    15    16    1
    26    15    38    1
    27    15    39    1
    28    16    17    1
    29    16    18    1
    30    16    40    1
    31    18    19   ar
    32    18    23   ar
    33    19    20   ar
    34    19    41    1
    35    20    21   ar
    36    20    42    1
    37    21    22   ar
    38    21    24    1
    39    22    23   ar
    40    22    43    1
    41    23    44    1
    42    24    45    1
    43    26    46    1
    44    27    47    1
    45    28    48    1
    46    29    49    1
    47    30    50    1
    48     1    31    1
    49     1    27    1
    50     2    32    1
    51     2    28    1
    52     4    34    1
    53     4    30    1
