@<TRIPOS>MOLECULE
*****
 50 53 0 0 0
SMALL
GASTEIGER

@<TRIPOS>ATOM
     1 C         -0.685692   0.569109   -1.994178 C.3        1 UNL1     0.1889
     2 C         -0.762415   0.650785   -0.44583 C.3        1 UNL1     0.1342
     3 C         -2.13412   0.295254   0.147877 C.3        1 UNL1     0.1174
     4 C         -3.298577   0.737419   -0.741869 C.3        1 UNL1     0.1456
     5 C         -3.08667   0.363734   -2.220321 C.3        1 UNL1     0.2326
     6 O         -1.867044   0.9297   -2.694731 O.3        1 UNL1     -0.3076
     7 O         -3.191877   -1.048795   -2.475301 O.3        1 UNL1     -0.4605
     8 C         -2.006985   -1.703261   -2.760314 C.ar        1 UNL1     0.1310
     9 C         -0.953598   -1.179232   -3.517329 C.ar        1 UNL1     0.0226
     10 C         0.216511   -1.915894   -3.736593 C.ar        1 UNL1     0.1343
     11 C         0.371403   -3.186368   -3.183651 C.ar        1 UNL1     0.1007
     12 C         -0.689996   -3.736686   -2.460211 C.ar        1 UNL1     0.1389
     13 C         -1.86748   -2.996828   -2.242104 C.ar        1 UNL1     0.0229
     14 C         1.618945   -3.974404   -3.313228 C.2        1 UNL1     0.1740
     15 C         1.693222   -5.215409   -2.473025 C.3        1 UNL1     0.0520
     16 C         0.33093   -5.894823   -2.49568 C.3        1 UNL1     0.1322
     17 O         -0.687593   -5.019422   -1.96337 O.3        1 UNL1     -0.4828
     18 C         -0.019018   -6.528939   -3.844071 C.ar        1 UNL1     -0.0067
     19 C         -1.348614   -6.92246   -4.100057 C.ar        1 UNL1     -0.0516
     20 C         -1.693366   -7.548318   -5.303972 C.ar        1 UNL1     -0.0198
     21 C         -0.718521   -7.79235   -6.254737 C.ar        1 UNL1     0.1169
     22 C         0.593085   -7.386392   -6.045628 C.ar        1 UNL1     -0.0198
     23 C         0.934536   -6.743918   -4.849512 C.ar        1 UNL1     -0.0516
     24 O         -1.08444   -8.437995   -7.399135 O.3        1 UNL1     -0.5068
     25 O         2.5769   -3.616864   -3.993649 O.2        1 UNL1     -0.2917
     26 O         1.206043   -1.347936   -4.484814 O.3        1 UNL1     -0.5058
     27 O         -0.147562   -0.654405   -2.4698 O.3        1 UNL1     -0.3648
     28 O         -0.458563   1.999639   -0.044618 O.3        1 UNL1     -0.3841
     29 O         -2.19457   -1.090827   0.490309 O.3        1 UNL1     -0.3863
     30 O         -3.453079   2.1699   -0.642796 O.3        1 UNL1     -0.3829
     31 H         0.041045   1.32484   -2.311675 H        1 UNL1     0.0937
     32 H         0.0   0.0   0.0 H        1 UNL1     0.0671
     33 H         -2.238038   0.835608   1.09916 H        1 UNL1     0.0649
     34 H         -4.232605   0.288888   -0.385763 H        1 UNL1     0.0683
     35 H         -3.902087   0.879306   -2.742967 H        1 UNL1     0.1085
     36 H         -0.989943   -0.175796   -3.927103 H        1 UNL1     0.0691
     37 H         -2.679653   -3.448317   -1.676395 H        1 UNL1     0.0691
     38 H         1.966151   -4.911501   -1.456818 H        1 UNL1     0.0385
     39 H         2.486028   -5.864309   -2.860537 H        1 UNL1     0.0385
     40 H         0.374072   -6.730434   -1.784053 H        1 UNL1     0.0789
     41 H         -2.130421   -6.750359   -3.366021 H        1 UNL1     0.0623
     42 H         -2.719824   -7.857779   -5.484607 H        1 UNL1     0.0654
     43 H         1.361435   -7.559023   -6.78977 H        1 UNL1     0.0654
     44 H         1.966583   -6.430878   -4.724088 H        1 UNL1     0.0623
     45 H         -0.908404   -9.386119   -7.286045 H        1 UNL1     0.2921
     46 H         1.528826   -1.990843   -5.135885 H        1 UNL1     0.2922
     47 H         0.552958   -0.964229   -1.878919 H        1 UNL1     0.2126
     48 H         -1.307161   2.482416   -0.021389 H        1 UNL1     0.2101
     49 H         -1.642337   -1.262621   1.269616 H        1 UNL1     0.2100
     50 H         -3.579878   2.52279   -1.547839 H        1 UNL1     0.2102
@<TRIPOS>BOND
     1     1     2    1
     2     1     6    1
     3     2     3    1
     4     3     4    1
     5     3    29    1
     6     3    33    1
     7     4     5    1
     8     5     6    1
     9     5     7    1
    10     5    35    1
    11     7     8    1
    12     8     9   ar
    13     8    13   ar
    14     9    10   ar
    15     9    36    1
    16    10    11   ar
    17    10    26    1
    18    11    12   ar
    19    11    14    1
    20    12    13   ar
    21    12    17    1
    22    13    37    1
    23    14    15    1
    24    14    25    2
    25    15    16    1
    26    15    38    1
    27    15    39    1
    28    16    17    1
    29    16    18    1
    30    16    40    1
    31    18    19   ar
    32    18    23   ar
    33    19    20   ar
    34    19    41    1
    35    20    21   ar
    36    20    42    1
    37    21    22   ar
    38    21    24    1
    39    22    23   ar
    40    22    43    1
    41    23    44    1
    42    24    45    1
    43    26    46    1
    44    27    47    1
    45    28    48    1
    46    29    49    1
    47    30    50    1
    48     1    31    1
    49     1    27    1
    50     2    32    1
    51     2    28    1
    52     4    34    1
    53     4    30    1
