@<TRIPOS>MOLECULE
*****
 50 53 0 0 0
SMALL
GASTEIGER

@<TRIPOS>ATOM
     1 C         -0.353648   -1.361644   1.670827 C.3        1 UNL1     0.1889
     2 C         -0.472412   -0.975088   0.172024 C.3        1 UNL1     0.1342
     3 C         -1.910046   -0.937747   -0.368605 C.3        1 UNL1     0.1174
     4 C         -2.80966   -2.002791   0.263449 C.3        1 UNL1     0.1456
     5 C         -2.666914   -2.062597   1.795249 C.3        1 UNL1     0.2326
     6 O         -1.306053   -2.300758   2.147676 O.3        1 UNL1     -0.3076
     7 O         -3.235036   -0.924639   2.468755 O.3        1 UNL1     -0.4605
     8 C         -3.764244   -1.165077   3.724006 C.ar        1 UNL1     0.1310
     9 C         -4.596839   -2.237854   4.060511 C.ar        1 UNL1     0.0226
     10 C         -5.069188   -2.405057   5.367734 C.ar        1 UNL1     0.1343
     11 C         -4.700693   -1.515941   6.37646 C.ar        1 UNL1     0.1007
     12 C         -3.903075   -0.417783   6.043838 C.ar        1 UNL1     0.1389
     13 C         -3.430416   -0.248411   4.728795 C.ar        1 UNL1     0.0229
     14 C         -5.102265   -1.691951   7.79135 C.2        1 UNL1     0.1740
     15 C         -4.436451   -0.774229   8.774217 C.3        1 UNL1     0.0520
     16 C         -4.343807   0.612354   8.152315 C.3        1 UNL1     0.1322
     17 O         -3.569178   0.576937   6.933395 O.3        1 UNL1     -0.4828
     18 C         -5.693873   1.322268   8.025559 C.ar        1 UNL1     -0.0067
     19 C         -5.730123   2.676858   7.635707 C.ar        1 UNL1     -0.0516
     20 C         -6.944357   3.369124   7.555927 C.ar        1 UNL1     -0.0198
     21 C         -8.12586   2.721557   7.86983 C.ar        1 UNL1     0.1169
     22 C         -8.125732   1.378807   8.224598 C.ar        1 UNL1     -0.0198
     23 C         -6.913446   0.681257   8.286599 C.ar        1 UNL1     -0.0516
     24 O         -9.285055   3.438437   7.817374 O.3        1 UNL1     -0.5068
     25 O         -5.865831   -2.575187   8.172593 O.2        1 UNL1     -0.2917
     26 O         -5.878675   -3.471609   5.629997 O.3        1 UNL1     -0.5058
     27 O         -0.242704   -0.242851   2.536149 O.3        1 UNL1     -0.3648
     28 O         0.253451   -1.943529   -0.607688 O.3        1 UNL1     -0.3841
     29 O         -2.455906   0.379014   -0.267059 O.3        1 UNL1     -0.3863
     30 O         -2.47105   -3.295161   -0.285015 O.3        1 UNL1     -0.3829
     31 H         0.601616   -1.885812   1.783956 H        1 UNL1     0.0937
     32 H         0.0   0.0   0.0 H        1 UNL1     0.0671
     33 H         -1.869184   -1.154425   -1.44522 H        1 UNL1     0.0649
     34 H         -3.856651   -1.809263   0.005075 H        1 UNL1     0.0683
     35 H         -3.23149   -2.959697   2.078701 H        1 UNL1     0.1085
     36 H         -4.873807   -2.994287   3.334412 H        1 UNL1     0.0691
     37 H         -2.811806   0.615493   4.495377 H        1 UNL1     0.0691
     38 H         -3.441166   -1.180064   8.984531 H        1 UNL1     0.0385
     39 H         -5.00916   -0.77182   9.707907 H        1 UNL1     0.0385
     40 H         -3.751198   1.234931   8.836225 H        1 UNL1     0.0789
     41 H         -4.815602   3.210153   7.393016 H        1 UNL1     0.0623
     42 H         -6.958045   4.41675   7.265576 H        1 UNL1     0.0654
     43 H         -9.046683   0.857903   8.457877 H        1 UNL1     0.0654
     44 H         -6.951588   -0.369572   8.557057 H        1 UNL1     0.0623
     45 H         -9.064482   4.382502   7.870344 H        1 UNL1     0.2921
     46 H         -5.662341   -3.834926   6.503274 H        1 UNL1     0.2922
     47 H         -0.317663   -0.524344   3.458647 H        1 UNL1     0.2126
     48 H         0.973279   -1.459001   -1.05581 H        1 UNL1     0.2101
     49 H         -3.008112   0.446928   0.528082 H        1 UNL1     0.2100
     50 H         -1.519958   -3.28337   -0.51953 H        1 UNL1     0.2102
@<TRIPOS>BOND
     1     1     2    1
     2     1     6    1
     3     2     3    1
     4     3     4    1
     5     3    29    1
     6     3    33    1
     7     4     5    1
     8     5     6    1
     9     5     7    1
    10     5    35    1
    11     7     8    1
    12     8     9   ar
    13     8    13   ar
    14     9    10   ar
    15     9    36    1
    16    10    11   ar
    17    10    26    1
    18    11    12   ar
    19    11    14    1
    20    12    13   ar
    21    12    17    1
    22    13    37    1
    23    14    15    1
    24    14    25    2
    25    15    16    1
    26    15    38    1
    27    15    39    1
    28    16    17    1
    29    16    18    1
    30    16    40    1
    31    18    19   ar
    32    18    23   ar
    33    19    20   ar
    34    19    41    1
    35    20    21   ar
    36    20    42    1
    37    21    22   ar
    38    21    24    1
    39    22    23   ar
    40    22    43    1
    41    23    44    1
    42    24    45    1
    43    26    46    1
    44    27    47    1
    45    28    48    1
    46    29    49    1
    47    30    50    1
    48     1    31    1
    49     1    27    1
    50     2    32    1
    51     2    28    1
    52     4    34    1
    53     4    30    1
