@<TRIPOS>MOLECULE
*****
 50 53 0 0 0
SMALL
GASTEIGER

@<TRIPOS>ATOM
     1 C         -0.298023   -1.366416   1.677765 C.3        1 UNL1     0.1889
     2 C         -0.455993   -0.981022   0.182286 C.3        1 UNL1     0.1342
     3 C         -1.906002   -0.961717   -0.325224 C.3        1 UNL1     0.1174
     4 C         -2.777367   -2.038199   0.326715 C.3        1 UNL1     0.1456
     5 C         -2.598792   -2.096575   1.854808 C.3        1 UNL1     0.2326
     6 O         -1.227309   -2.317607   2.175818 O.3        1 UNL1     -0.3076
     7 O         -3.165646   -0.966052   2.54177 O.3        1 UNL1     -0.4605
     8 C         -3.652598   -1.211029   3.813145 C.ar        1 UNL1     0.1310
     9 C         -4.459141   -2.29469   4.177106 C.ar        1 UNL1     0.0226
     10 C         -4.888711   -2.465513   5.498542 C.ar        1 UNL1     0.1343
     11 C         -4.502094   -1.568927   6.493782 C.ar        1 UNL1     0.1007
     12 C         -3.730749   -0.460373   6.134729 C.ar        1 UNL1     0.1389
     13 C         -3.30114   -0.287395   4.805464 C.ar        1 UNL1     0.0229
     14 C         -4.857498   -1.747304   7.920675 C.2        1 UNL1     0.1740
     15 C         -4.174932   -0.81797   8.880878 C.3        1 UNL1     0.0520
     16 C         -4.121137   0.568333   8.253799 C.3        1 UNL1     0.1322
     17 O         -3.383869   0.541039   7.01172 O.3        1 UNL1     -0.4828
     18 C         -5.484411   1.258781   8.167248 C.ar        1 UNL1     -0.0067
     19 C         -5.885431   1.849803   6.951481 C.ar        1 UNL1     -0.0516
     20 C         -7.104893   2.530133   6.851351 C.ar        1 UNL1     -0.0198
     21 C         -7.927027   2.632529   7.959249 C.ar        1 UNL1     0.1169
     22 C         -7.574992   2.032297   9.161177 C.ar        1 UNL1     -0.0198
     23 C         -6.364095   1.3361   9.256546 C.ar        1 UNL1     -0.0516
     24 O         -9.089396   3.33512   7.834086 O.3        1 UNL1     -0.5068
     25 O         -5.59637   -2.640364   8.326873 O.2        1 UNL1     -0.2917
     26 O         -5.674527   -3.542795   5.787575 O.3        1 UNL1     -0.5058
     27 O         -0.181402   -0.246524   2.540916 O.3        1 UNL1     -0.3648
     28 O         0.263972   -1.940021   -0.61438 O.3        1 UNL1     -0.3841
     29 O         -2.465974   0.348016   -0.210486 O.3        1 UNL1     -0.3863
     30 O         -2.43513   -3.326052   -0.23006 O.3        1 UNL1     -0.3829
     31 H         0.666126   -1.878499   1.768684 H        1 UNL1     0.0937
     32 H         0.0   0.0   0.0 H        1 UNL1     0.0671
     33 H         -1.887104   -1.177596   -1.40261 H        1 UNL1     0.0649
     34 H         -3.832367   -1.857853   0.092514 H        1 UNL1     0.0683
     35 H         -3.145347   -3.000807   2.150647 H        1 UNL1     0.1085
     36 H         -4.747491   -3.056653   3.461294 H        1 UNL1     0.0691
     37 H         -2.702326   0.584628   4.551511 H        1 UNL1     0.0691
     38 H         -3.167992   -1.209195   9.061276 H        1 UNL1     0.0385
     39 H         -4.718683   -0.821488   9.83172 H        1 UNL1     0.0385
     40 H         -3.516719   1.200821   8.917995 H        1 UNL1     0.0789
     41 H         -5.253727   1.791254   6.069907 H        1 UNL1     0.0623
     42 H         -7.397472   2.991864   5.911556 H        1 UNL1     0.0654
     43 H         -8.218303   2.093476   10.030843 H        1 UNL1     0.0654
     44 H         -6.125753   0.870438   10.207965 H        1 UNL1     0.0623
     45 H         -8.870144   4.251514   7.599847 H        1 UNL1     0.2921
     46 H         -5.257375   -4.068897   6.488012 H        1 UNL1     0.2922
     47 H         0.553179   0.317135   2.260669 H        1 UNL1     0.2126
     48 H         1.203973   -1.865241   -0.360337 H        1 UNL1     0.2101
     49 H         -2.040305   0.945719   -0.845586 H        1 UNL1     0.2100
     50 H         -2.690204   -3.323024   -1.175915 H        1 UNL1     0.2102
@<TRIPOS>BOND
     1     1     2    1
     2     1     6    1
     3     2     3    1
     4     3     4    1
     5     3    29    1
     6     3    33    1
     7     4     5    1
     8     5     6    1
     9     5     7    1
    10     5    35    1
    11     7     8    1
    12     8     9   ar
    13     8    13   ar
    14     9    10   ar
    15     9    36    1
    16    10    11   ar
    17    10    26    1
    18    11    12   ar
    19    11    14    1
    20    12    13   ar
    21    12    17    1
    22    13    37    1
    23    14    15    1
    24    14    25    2
    25    15    16    1
    26    15    38    1
    27    15    39    1
    28    16    17    1
    29    16    18    1
    30    16    40    1
    31    18    19   ar
    32    18    23   ar
    33    19    20   ar
    34    19    41    1
    35    20    21   ar
    36    20    42    1
    37    21    22   ar
    38    21    24    1
    39    22    23   ar
    40    22    43    1
    41    23    44    1
    42    24    45    1
    43    26    46    1
    44    27    47    1
    45    28    48    1
    46    29    49    1
    47    30    50    1
    48     1    31    1
    49     1    27    1
    50     2    32    1
    51     2    28    1
    52     4    34    1
    53     4    30    1
