@<TRIPOS>MOLECULE
*****
 50 53 0 0 0
SMALL
GASTEIGER

@<TRIPOS>ATOM
     1 C         -0.31834   -1.349823   1.687436 C.3        1 UNL1     0.1889
     2 C         -0.460893   -0.977835   0.187022 C.3        1 UNL1     0.1342
     3 C         -1.905963   -0.958645   -0.334389 C.3        1 UNL1     0.1174
     4 C         -2.786964   -2.026257   0.319186 C.3        1 UNL1     0.1456
     5 C         -2.62305   -2.071005   1.84938 C.3        1 UNL1     0.2326
     6 O         -1.255394   -2.293396   2.185428 O.3        1 UNL1     -0.3076
     7 O         -3.192691   -0.932359   2.520436 O.3        1 UNL1     -0.4605
     8 C         -3.692449   -1.163972   3.789343 C.ar        1 UNL1     0.1310
     9 C         -4.505929   -2.241642   4.155646 C.ar        1 UNL1     0.0226
     10 C         -4.94854   -2.398822   5.474469 C.ar        1 UNL1     0.1343
     11 C         -4.568439   -1.494263   6.464993 C.ar        1 UNL1     0.1007
     12 C         -3.790121   -0.391544   6.103033 C.ar        1 UNL1     0.1389
     13 C         -3.34739   -0.232281   4.776362 C.ar        1 UNL1     0.0229
     14 C         -4.93791   -1.658253   7.890037 C.2        1 UNL1     0.1740
     15 C         -4.261436   -0.72221   8.848034 C.3        1 UNL1     0.0520
     16 C         -4.197191   0.658031   8.208688 C.3        1 UNL1     0.1322
     17 O         -3.448294   0.616865   6.97397 O.3        1 UNL1     -0.4828
     18 C         -5.557326   1.351966   8.102811 C.ar        1 UNL1     -0.0067
     19 C         -5.944894   1.932941   6.877873 C.ar        1 UNL1     -0.0516
     20 C         -7.16113   2.616176   6.759877 C.ar        1 UNL1     -0.0198
     21 C         -7.993373   2.731464   7.858924 C.ar        1 UNL1     0.1169
     22 C         -7.654687   2.141307   9.069645 C.ar        1 UNL1     -0.0198
     23 C         -6.447023   1.442188   9.182946 C.ar        1 UNL1     -0.0516
     24 O         -9.152209   3.436546   7.716234 O.3        1 UNL1     -0.5068
     25 O         -5.683501   -2.545153   8.297452 O.2        1 UNL1     -0.2917
     26 O         -5.740564   -3.470876   5.765988 O.3        1 UNL1     -0.5058
     27 O         -0.206244   -0.222339   2.541252 O.3        1 UNL1     -0.3648
     28 O         0.263449   -1.946471   -0.593862 O.3        1 UNL1     -0.3841
     29 O         -2.462724   0.353866   -0.2371 O.3        1 UNL1     -0.3863
     30 O         -2.443673   -3.320304   -0.22237 O.3        1 UNL1     -0.3829
     31 H         0.643231   -1.864095   1.792241 H        1 UNL1     0.0937
     32 H         0.0   0.0   0.0 H        1 UNL1     0.0671
     33 H         -1.877574   -1.184579   -1.409501 H        1 UNL1     0.0649
     34 H         -3.839107   -1.844748   0.073321 H        1 UNL1     0.0683
     35 H         -3.175325   -2.970712   2.148375 H        1 UNL1     0.1085
     36 H         -4.789975   -3.009302   3.444213 H        1 UNL1     0.0691
     37 H         -2.74336   0.635441   4.520044 H        1 UNL1     0.0691
     38 H         -3.25753   -1.114935   9.041596 H        1 UNL1     0.0385
     39 H         -4.81417   -0.715174   9.793663 H        1 UNL1     0.0385
     40 H         -3.597026   1.29474   8.872709 H        1 UNL1     0.0789
     41 H         -5.30507   1.864204   6.002915 H        1 UNL1     0.0623
     42 H         -7.443294   3.070085   5.813113 H        1 UNL1     0.0654
     43 H         -8.305997   2.2126   9.932561 H        1 UNL1     0.0654
     44 H         -6.219215   0.984629   10.140855 H        1 UNL1     0.0623
     45 H         -8.927764   4.350025   7.475614 H        1 UNL1     0.2921
     46 H         -5.331776   -3.991771   6.475194 H        1 UNL1     0.2922
     47 H         0.532791   0.33636   2.262786 H        1 UNL1     0.2126
     48 H         1.201243   -1.872317   -0.331609 H        1 UNL1     0.2101
     49 H         -2.031037   0.94362   -0.87556 H        1 UNL1     0.2100
     50 H         -2.689773   -3.325252   -1.170591 H        1 UNL1     0.2102
@<TRIPOS>BOND
     1     1     2    1
     2     1     6    1
     3     2     3    1
     4     3     4    1
     5     3    29    1
     6     3    33    1
     7     4     5    1
     8     5     6    1
     9     5     7    1
    10     5    35    1
    11     7     8    1
    12     8     9   ar
    13     8    13   ar
    14     9    10   ar
    15     9    36    1
    16    10    11   ar
    17    10    26    1
    18    11    12   ar
    19    11    14    1
    20    12    13   ar
    21    12    17    1
    22    13    37    1
    23    14    15    1
    24    14    25    2
    25    15    16    1
    26    15    38    1
    27    15    39    1
    28    16    17    1
    29    16    18    1
    30    16    40    1
    31    18    19   ar
    32    18    23   ar
    33    19    20   ar
    34    19    41    1
    35    20    21   ar
    36    20    42    1
    37    21    22   ar
    38    21    24    1
    39    22    23   ar
    40    22    43    1
    41    23    44    1
    42    24    45    1
    43    26    46    1
    44    27    47    1
    45    28    48    1
    46    29    49    1
    47    30    50    1
    48     1    31    1
    49     1    27    1
    50     2    32    1
    51     2    28    1
    52     4    34    1
    53     4    30    1
