@<TRIPOS>MOLECULE
*****
 50 53 0 0 0
SMALL
GASTEIGER

@<TRIPOS>ATOM
     1 C         -0.35049   -1.338345   1.690205 C.3        1 UNL1     0.1889
     2 C         -0.471625   -0.972839   0.18632 C.3        1 UNL1     0.1342
     3 C         -1.910056   -0.943823   -0.352697 C.3        1 UNL1     0.1174
     4 C         -2.808171   -2.000408   0.295482 C.3        1 UNL1     0.1456
     5 C         -2.663187   -2.038722   1.82776 C.3        1 UNL1     0.2326
     6 O         -1.301688   -2.271209   2.181511 O.3        1 UNL1     -0.3076
     7 O         -3.230967   -0.891763   2.486117 O.3        1 UNL1     -0.4605
     8 C         -3.754841   -1.114127   3.746926 C.ar        1 UNL1     0.1310
     9 C         -4.586804   -2.181365   4.102088 C.ar        1 UNL1     0.0226
     10 C         -5.053531   -2.32982   5.413587 C.ar        1 UNL1     0.1343
     11 C         -4.679896   -1.426969   6.40812 C.ar        1 UNL1     0.1007
     12 C         -3.882872   -0.334267   6.056638 C.ar        1 UNL1     0.1389
     13 C         -3.415867   -0.183752   4.737289 C.ar        1 UNL1     0.0229
     14 C         -5.075381   -1.582782   7.827087 C.2        1 UNL1     0.1740
     15 C         -4.404519   -0.651945   8.794059 C.3        1 UNL1     0.0520
     16 C         -4.313505   0.725704   8.152375 C.3        1 UNL1     0.1322
     17 O         -3.544273   0.672538   6.930686 O.3        1 UNL1     -0.4828
     18 C         -5.663549   1.43493   8.021601 C.ar        1 UNL1     -0.0067
     19 C         -6.017149   2.029897   6.793108 C.ar        1 UNL1     -0.0516
     20 C         -7.223177   2.726988   6.653379 C.ar        1 UNL1     -0.0198
     21 C         -8.078863   2.842243   7.734278 C.ar        1 UNL1     0.1169
     22 C         -7.773903   2.238732   8.947378 C.ar        1 UNL1     -0.0198
     23 C         -6.576505   1.525887   9.082089 C.ar        1 UNL1     -0.0516
     24 O         -9.226719   3.560768   7.57134 O.3        1 UNL1     -0.5068
     25 O         -5.837967   -2.459931   8.224022 O.2        1 UNL1     -0.2917
     26 O         -5.862708   -3.391895   5.694327 O.3        1 UNL1     -0.5058
     27 O         -0.238918   -0.207508   2.539644 O.3        1 UNL1     -0.3648
     28 O         0.253649   -1.951698   -0.580831 O.3        1 UNL1     -0.3841
     29 O         -2.456497   0.373937   -0.268775 O.3        1 UNL1     -0.3863
     30 O         -2.469638   -3.300137   -0.235355 O.3        1 UNL1     -0.3829
     31 H         0.605225   -1.860372   1.809266 H        1 UNL1     0.0937
     32 H         0.0   0.0   0.0 H        1 UNL1     0.0671
     33 H         -1.870625   -1.175507   -1.426237 H        1 UNL1     0.0649
     34 H         -3.85564   -1.811067   0.035944 H        1 UNL1     0.0683
     35 H         -3.226859   -2.932072   2.12454 H        1 UNL1     0.1085
     36 H         -4.867565   -2.947664   3.387889 H        1 UNL1     0.0691
     37 H         -2.7976   0.676263   4.489069 H        1 UNL1     0.0691
     38 H         -3.408643   -1.055647   9.005675 H        1 UNL1     0.0385
     39 H         -4.973114   -0.635956   9.730127 H        1 UNL1     0.0385
     40 H         -3.717398   1.357297   8.824883 H        1 UNL1     0.0789
     41 H         -5.358414   1.961426   5.932277 H        1 UNL1     0.0623
     42 H         -7.479042   3.191526   5.7043 H        1 UNL1     0.0654
     43 H         -8.44382   2.309977   9.795933 H        1 UNL1     0.0654
     44 H         -6.37527   1.058189   10.041051 H        1 UNL1     0.0623
     45 H         -8.987324   4.47372   7.343467 H        1 UNL1     0.2921
     46 H         -5.472061   -3.915502   6.411713 H        1 UNL1     0.2922
     47 H         0.504058   0.346928   2.263151 H        1 UNL1     0.2126
     48 H         1.189266   -1.882365   -0.309637 H        1 UNL1     0.2101
     49 H         -2.015812   0.955314   -0.908769 H        1 UNL1     0.2100
     50 H         -2.704277   -3.307819   -1.186459 H        1 UNL1     0.2102
@<TRIPOS>BOND
     1     1     2    1
     2     1     6    1
     3     2     3    1
     4     3     4    1
     5     3    29    1
     6     3    33    1
     7     4     5    1
     8     5     6    1
     9     5     7    1
    10     5    35    1
    11     7     8    1
    12     8     9   ar
    13     8    13   ar
    14     9    10   ar
    15     9    36    1
    16    10    11   ar
    17    10    26    1
    18    11    12   ar
    19    11    14    1
    20    12    13   ar
    21    12    17    1
    22    13    37    1
    23    14    15    1
    24    14    25    2
    25    15    16    1
    26    15    38    1
    27    15    39    1
    28    16    17    1
    29    16    18    1
    30    16    40    1
    31    18    19   ar
    32    18    23   ar
    33    19    20   ar
    34    19    41    1
    35    20    21   ar
    36    20    42    1
    37    21    22   ar
    38    21    24    1
    39    22    23   ar
    40    22    43    1
    41    23    44    1
    42    24    45    1
    43    26    46    1
    44    27    47    1
    45    28    48    1
    46    29    49    1
    47    30    50    1
    48     1    31    1
    49     1    27    1
    50     2    32    1
    51     2    28    1
    52     4    34    1
    53     4    30    1
