@<TRIPOS>MOLECULE
*****
 50 53 0 0 0
SMALL
GASTEIGER

@<TRIPOS>ATOM
     1 C         -0.086945   -1.035549   1.921167 C.3        1 UNL1     0.1889
     2 C         -0.561168   -0.823827   0.458216 C.3        1 UNL1     0.1342
     3 C         -2.065467   -0.551798   0.304757 C.3        1 UNL1     0.1174
     4 C         -2.91371   -1.314861   1.325215 C.3        1 UNL1     0.1456
     5 C         -2.352332   -1.210775   2.755035 C.3        1 UNL1     0.2326
     6 O         -1.008011   -1.684867   2.785123 O.3        1 UNL1     -0.3076
     7 O         -2.50436   0.096819   3.336761 O.3        1 UNL1     -0.4605
     8 C         -2.674979   0.133724   4.709006 C.ar        1 UNL1     0.1310
     9 C         -3.609896   0.922147   5.388432 C.ar        1 UNL1     0.0226
     10 C         -3.717591   0.876485   6.783502 C.ar        1 UNL1     0.1343
     11 C         -2.90836   0.022743   7.531907 C.ar        1 UNL1     0.1007
     12 C         -1.943001   -0.739021   6.868142 C.ar        1 UNL1     0.1389
     13 C         -1.833118   -0.690965   5.465628 C.ar        1 UNL1     0.0229
     14 C         -3.036998   -0.127416   8.999918 C.2        1 UNL1     0.1740
     15 C         -2.24522   -1.24656   9.609962 C.3        1 UNL1     0.0520
     16 C         -0.882351   -1.297213   8.933219 C.3        1 UNL1     0.1322
     17 O         -1.022665   -1.531122   7.514534 O.3        1 UNL1     -0.4828
     18 C         0.029447   -0.122378   9.295312 C.ar        1 UNL1     -0.0067
     19 C         0.69004   0.583531   8.268899 C.ar        1 UNL1     -0.0516
     20 C         1.567655   1.632397   8.568288 C.ar        1 UNL1     -0.0198
     21 C         1.798269   1.979393   9.887469 C.ar        1 UNL1     0.1169
     22 C         1.137002   1.324989   10.918643 C.ar        1 UNL1     -0.0198
     23 C         0.245237   0.288257   10.618644 C.ar        1 UNL1     -0.0516
     24 O         2.688379   2.980993   10.142229 O.3        1 UNL1     -0.5068
     25 O         -3.795893   0.552961   9.685228 O.2        1 UNL1     -0.2917
     26 O         -4.649047   1.671374   7.38527 O.3        1 UNL1     -0.5058
     27 O         0.453204   0.134097   2.515265 O.3        1 UNL1     -0.3648
     28 O         -0.261996   -2.013747   -0.294973 O.3        1 UNL1     -0.3841
     29 O         -2.329419   0.852645   0.305366 O.3        1 UNL1     -0.3863
     30 O         -2.968626   -2.707964   0.948469 O.3        1 UNL1     -0.3829
     31 H         0.758204   -1.731235   1.878477 H        1 UNL1     0.0937
     32 H         0.0   0.0   0.0 H        1 UNL1     0.0671
     33 H         -2.370455   -0.905561   -0.690006 H        1 UNL1     0.0649
     34 H         -3.942599   -0.93853   1.312361 H        1 UNL1     0.0683
     35 H         -2.95553   -1.925554   3.328726 H        1 UNL1     0.1085
     36 H         -4.305601   1.564545   4.859811 H        1 UNL1     0.0691
     37 H         -1.072651   -1.292979   4.972917 H        1 UNL1     0.0691
     38 H         -2.802709   -2.174788   9.445268 H        1 UNL1     0.0385
     39 H         -2.165357   -1.082572   10.690013 H        1 UNL1     0.0385
     40 H         -0.367232   -2.191495   9.309294 H        1 UNL1     0.0789
     41 H         0.532938   0.324428   7.225905 H        1 UNL1     0.0623
     42 H         2.080149   2.161251   7.768491 H        1 UNL1     0.0654
     43 H         1.298759   1.598586   11.954446 H        1 UNL1     0.0654
     44 H         -0.262055   -0.194151   11.448573 H        1 UNL1     0.0623
     45 H         3.554534   2.718274   9.790846 H        1 UNL1     0.2921
     46 H         -5.245294   1.123398   7.919708 H        1 UNL1     0.2922
     47 H         1.179011   0.478703   1.97646 H        1 UNL1     0.2126
     48 H         0.707888   -2.124944   -0.26867 H        1 UNL1     0.2101
     49 H         -1.985363   1.25345   -0.508744 H        1 UNL1     0.2100
     50 H         -3.454141   -2.771932   0.100002 H        1 UNL1     0.2102
@<TRIPOS>BOND
     1     1     2    1
     2     1     6    1
     3     2     3    1
     4     3     4    1
     5     3    29    1
     6     3    33    1
     7     4     5    1
     8     5     6    1
     9     5     7    1
    10     5    35    1
    11     7     8    1
    12     8     9   ar
    13     8    13   ar
    14     9    10   ar
    15     9    36    1
    16    10    11   ar
    17    10    26    1
    18    11    12   ar
    19    11    14    1
    20    12    13   ar
    21    12    17    1
    22    13    37    1
    23    14    15    1
    24    14    25    2
    25    15    16    1
    26    15    38    1
    27    15    39    1
    28    16    17    1
    29    16    18    1
    30    16    40    1
    31    18    19   ar
    32    18    23   ar
    33    19    20   ar
    34    19    41    1
    35    20    21   ar
    36    20    42    1
    37    21    22   ar
    38    21    24    1
    39    22    23   ar
    40    22    43    1
    41    23    44    1
    42    24    45    1
    43    26    46    1
    44    27    47    1
    45    28    48    1
    46    29    49    1
    47    30    50    1
    48     1    31    1
    49     1    27    1
    50     2    32    1
    51     2    28    1
    52     4    34    1
    53     4    30    1
