@<TRIPOS>MOLECULE
*****
 50 53 0 0 0
SMALL
GASTEIGER

@<TRIPOS>ATOM
     1 C         -0.338949   -1.333354   1.696492 C.3        1 UNL1     0.1889
     2 C         -0.465683   -0.974711   0.191416 C.3        1 UNL1     0.1342
     3 C         -1.905519   -0.956018   -0.344298 C.3        1 UNL1     0.1174
     4 C         -2.796124   -2.014982   0.310329 C.3        1 UNL1     0.1456
     5 C         -2.647323   -2.04619   1.842402 C.3        1 UNL1     0.2326
     6 O         -1.283705   -2.269543   2.193866 O.3        1 UNL1     -0.3076
     7 O         -3.220023   -0.89976   2.497409 O.3        1 UNL1     -0.4605
     8 C         -3.732874   -1.118253   3.763415 C.ar        1 UNL1     0.1310
     9 C         -4.553183   -2.190106   4.13155 C.ar        1 UNL1     0.0226
     10 C         -5.009151   -2.333882   5.447348 C.ar        1 UNL1     0.1343
     11 C         -4.635998   -1.421414   6.433249 C.ar        1 UNL1     0.1007
     12 C         -3.850814   -0.324369   6.068883 C.ar        1 UNL1     0.1389
     13 C         -3.394643   -0.178583   4.74522 C.ar        1 UNL1     0.0229
     14 C         -5.019889   -1.571242   7.856039 C.2        1 UNL1     0.1740
     15 C         -4.349964   -0.628469   8.812035 C.3        1 UNL1     0.0520
     16 C         -4.275256   0.74566   8.160769 C.3        1 UNL1     0.1322
     17 O         -3.514447   0.690962   6.933884 O.3        1 UNL1     -0.4828
     18 C         -5.632166   1.442622   8.035221 C.ar        1 UNL1     -0.0067
     19 C         -6.005958   2.013493   6.801284 C.ar        1 UNL1     -0.0516
     20 C         -7.218891   2.699218   6.665127 C.ar        1 UNL1     -0.0198
     21 C         -8.06149   2.827038   7.75486 C.ar        1 UNL1     0.1169
     22 C         -7.736465   2.247   8.974185 C.ar        1 UNL1     -0.0198
     23 C         -6.532107   1.545374   9.105708 C.ar        1 UNL1     -0.0516
     24 O         -9.216717   3.534212   7.594375 O.3        1 UNL1     -0.5068
     25 O         -5.772133   -2.452159   8.264206 O.2        1 UNL1     -0.2917
     26 O         -5.807257   -3.400868   5.740865 O.3        1 UNL1     -0.5058
     27 O         -0.231769   -0.19843   2.541032 O.3        1 UNL1     -0.3648
     28 O         0.263303   -1.952603   -0.573444 O.3        1 UNL1     -0.3841
     29 O         -2.459195   0.358973   -0.264468 O.3        1 UNL1     -0.3863
     30 O         -2.451504   -3.314949   -0.215991 O.3        1 UNL1     -0.3829
     31 H         0.619977   -1.84949   1.815417 H        1 UNL1     0.0937
     32 H         0.0   0.0   0.0 H        1 UNL1     0.0671
     33 H         -1.867304   -1.191879   -1.416972 H        1 UNL1     0.0649
     34 H         -3.845253   -1.832617   0.052507 H        1 UNL1     0.0683
     35 H         -3.20524   -2.94148   2.144171 H        1 UNL1     0.1085
     36 H         -4.832598   -2.963409   3.424407 H        1 UNL1     0.0691
     37 H         -2.78549   0.684961   4.486924 H        1 UNL1     0.0691
     38 H         -3.349203   -1.022375   9.019015 H        1 UNL1     0.0385
     39 H         -4.911898   -0.611129   9.752093 H        1 UNL1     0.0385
     40 H         -3.679675   1.386646   8.824802 H        1 UNL1     0.0789
     41 H         -5.357819   1.934845   5.933309 H        1 UNL1     0.0623
     42 H         -7.490395   3.145265   5.711535 H        1 UNL1     0.0654
     43 H         -8.395964   2.328127   9.829983 H        1 UNL1     0.0654
     44 H         -6.315077   1.095939   10.069944 H        1 UNL1     0.0623
     45 H         -8.987208   4.444051   7.344903 H        1 UNL1     0.2921
     46 H         -5.407018   -3.916451   6.458776 H        1 UNL1     0.2922
     47 H         0.51081   0.356213   2.263889 H        1 UNL1     0.2126
     48 H         1.198709   -1.878828   -0.302693 H        1 UNL1     0.2101
     49 H         -2.019486   0.94157   -0.904024 H        1 UNL1     0.2100
     50 H         -2.688331   -3.327856   -1.166496 H        1 UNL1     0.2102
@<TRIPOS>BOND
     1     1     2    1
     2     1     6    1
     3     2     3    1
     4     3     4    1
     5     3    29    1
     6     3    33    1
     7     4     5    1
     8     5     6    1
     9     5     7    1
    10     5    35    1
    11     7     8    1
    12     8     9   ar
    13     8    13   ar
    14     9    10   ar
    15     9    36    1
    16    10    11   ar
    17    10    26    1
    18    11    12   ar
    19    11    14    1
    20    12    13   ar
    21    12    17    1
    22    13    37    1
    23    14    15    1
    24    14    25    2
    25    15    16    1
    26    15    38    1
    27    15    39    1
    28    16    17    1
    29    16    18    1
    30    16    40    1
    31    18    19   ar
    32    18    23   ar
    33    19    20   ar
    34    19    41    1
    35    20    21   ar
    36    20    42    1
    37    21    22   ar
    38    21    24    1
    39    22    23   ar
    40    22    43    1
    41    23    44    1
    42    24    45    1
    43    26    46    1
    44    27    47    1
    45    28    48    1
    46    29    49    1
    47    30    50    1
    48     1    31    1
    49     1    27    1
    50     2    32    1
    51     2    28    1
    52     4    34    1
    53     4    30    1
