@<TRIPOS>MOLECULE
*****
 50 53 0 0 0
SMALL
GASTEIGER

@<TRIPOS>ATOM
     1 C         -0.034216   -1.167894   1.845443 C.3        1 UNL1     0.1889
     2 C         -0.287627   -1.008478   0.322186 C.3        1 UNL1     0.1342
     3 C         -1.733456   -1.282331   -0.119457 C.3        1 UNL1     0.1174
     4 C         -2.404399   -2.38869   0.69842 C.3        1 UNL1     0.1456
     5 C         -2.182539   -2.220459   2.212633 C.3        1 UNL1     0.2326
     6 O         -0.786134   -2.180527   2.497812 O.3        1 UNL1     -0.3076
     7 O         -2.907562   -1.113563   2.77871 O.3        1 UNL1     -0.4605
     8 C         -2.696841   -0.87586   4.125046 C.ar        1 UNL1     0.1310
     9 C         -3.042541   0.297143   4.804646 C.ar        1 UNL1     0.0226
     10 C         -2.802781   0.435947   6.176925 C.ar        1 UNL1     0.1343
     11 C         -2.232655   -0.605118   6.90835 C.ar        1 UNL1     0.1007
     12 C         -1.845614   -1.765618   6.232909 C.ar        1 UNL1     0.1389
     13 C         -2.084382   -1.903917   4.852585 C.ar        1 UNL1     0.0229
     14 C         -2.033954   -0.54437   8.374973 C.2        1 UNL1     0.1740
     15 C         -1.618368   -1.829988   9.027676 C.3        1 UNL1     0.0520
     16 C         -0.604125   -2.52163   8.127177 C.3        1 UNL1     0.1322
     17 O         -1.178856   -2.80841   6.833147 O.3        1 UNL1     -0.4828
     18 C         0.754685   -1.818953   8.076154 C.ar        1 UNL1     -0.0067
     19 C         1.643276   -1.949837   9.163118 C.ar        1 UNL1     -0.0516
     20 C         2.873793   -1.282192   9.169385 C.ar        1 UNL1     -0.0198
     21 C         3.223389   -0.476666   8.100396 C.ar        1 UNL1     0.1169
     22 C         2.38415   -0.354457   7.000586 C.ar        1 UNL1     -0.0198
     23 C         1.16167   -1.036647   6.985854 C.ar        1 UNL1     -0.0516
     24 O         4.413097   0.187863   8.158689 O.3        1 UNL1     -0.5068
     25 O         -2.264874   0.456966   9.047645 O.2        1 UNL1     -0.2917
     26 O         -3.16253   1.605833   6.77986 O.3        1 UNL1     -0.5058
     27 O         -0.078985   0.058444   2.557397 O.3        1 UNL1     -0.3648
     28 O         0.558244   -1.937608   -0.380613 O.3        1 UNL1     -0.3841
     29 O         -2.494125   -0.072805   -0.143126 O.3        1 UNL1     -0.3863
     30 O         -1.872576   -3.668014   0.290762 O.3        1 UNL1     -0.3829
     31 H         1.001689   -1.506495   1.956481 H        1 UNL1     0.0937
     32 H         0.0   0.0   0.0 H        1 UNL1     0.0671
     33 H         -1.70562   -1.629936   -1.161627 H        1 UNL1     0.0649
     34 H         -3.47993   -2.407658   0.490393 H        1 UNL1     0.0683
     35 H         -2.56919   -3.153268   2.641874 H        1 UNL1     0.1085
     36 H         -3.539565   1.120816   4.303994 H        1 UNL1     0.0691
     37 H         -1.772612   -2.816946   4.349922 H        1 UNL1     0.0691
     38 H         -2.517164   -2.442976   9.153921 H        1 UNL1     0.0385
     39 H         -1.210192   -1.612839   10.02066 H        1 UNL1     0.0385
     40 H         -0.4042   -3.509504   8.563819 H        1 UNL1     0.0789
     41 H         1.388161   -2.568932   10.018272 H        1 UNL1     0.0623
     42 H         3.545155   -1.381686   10.018729 H        1 UNL1     0.0654
     43 H         2.65471   0.26178   6.151493 H        1 UNL1     0.0654
     44 H         0.535439   -0.926729   6.105742 H        1 UNL1     0.0623
     45 H         4.691165   0.238045   9.087601 H        1 UNL1     0.2921
     46 H         -3.013759   1.536058   7.736108 H        1 UNL1     0.2922
     47 H         -0.984206   0.248028   2.841108 H        1 UNL1     0.2126
     48 H         0.014791   -2.327474   -1.092227 H        1 UNL1     0.2101
     49 H         -3.381445   -0.233921   0.215342 H        1 UNL1     0.2100
     50 H         -1.22736   -3.95634   0.9692 H        1 UNL1     0.2102
@<TRIPOS>BOND
     1     1     2    1
     2     1     6    1
     3     2     3    1
     4     3     4    1
     5     3    29    1
     6     3    33    1
     7     4     5    1
     8     5     6    1
     9     5     7    1
    10     5    35    1
    11     7     8    1
    12     8     9   ar
    13     8    13   ar
    14     9    10   ar
    15     9    36    1
    16    10    11   ar
    17    10    26    1
    18    11    12   ar
    19    11    14    1
    20    12    13   ar
    21    12    17    1
    22    13    37    1
    23    14    15    1
    24    14    25    2
    25    15    16    1
    26    15    38    1
    27    15    39    1
    28    16    17    1
    29    16    18    1
    30    16    40    1
    31    18    19   ar
    32    18    23   ar
    33    19    20   ar
    34    19    41    1
    35    20    21   ar
    36    20    42    1
    37    21    22   ar
    38    21    24    1
    39    22    23   ar
    40    22    43    1
    41    23    44    1
    42    24    45    1
    43    26    46    1
    44    27    47    1
    45    28    48    1
    46    29    49    1
    47    30    50    1
    48     1    31    1
    49     1    27    1
    50     2    32    1
    51     2    28    1
    52     4    34    1
    53     4    30    1
