@<TRIPOS>MOLECULE
*****
 50 53 0 0 0
SMALL
GASTEIGER

@<TRIPOS>ATOM
     1 C         -0.326543   -1.36676   1.672167 C.3        1 UNL1     0.1889
     2 C         -0.462154   -0.979467   0.174985 C.3        1 UNL1     0.1342
     3 C         -1.904844   -0.954289   -0.352722 C.3        1 UNL1     0.1174
     4 C         -2.789248   -2.028073   0.285976 C.3        1 UNL1     0.1456
     5 C         -2.632271   -2.088455   1.816361 C.3        1 UNL1     0.2326
     6 O         -1.266243   -2.314902   2.1563 O.3        1 UNL1     -0.3076
     7 O         -3.20445   -0.956421   2.496383 O.3        1 UNL1     -0.4605
     8 C         -3.827448   -1.224796   3.701944 C.ar        1 UNL1     0.1310
     9 C         -4.721894   -2.274837   3.935782 C.ar        1 UNL1     0.0226
     10 C         -5.288955   -2.474527   5.200088 C.ar        1 UNL1     0.1343
     11 C         -4.956592   -1.64247   6.26829 C.ar        1 UNL1     0.1007
     12 C         -4.096302   -0.565799   6.037063 C.ar        1 UNL1     0.1389
     13 C         -3.528312   -0.363642   4.765077 C.ar        1 UNL1     0.0229
     14 C         -5.460827   -1.858185   7.644287 C.2        1 UNL1     0.1740
     15 C         -4.829188   -1.008826   8.707853 C.3        1 UNL1     0.0520
     16 C         -4.640714   0.396508   8.153353 C.3        1 UNL1     0.1322
     17 O         -3.786179   0.377886   6.988667 O.3        1 UNL1     -0.4828
     18 C         -5.950536   1.16613   7.96688 C.ar        1 UNL1     -0.0067
     19 C         -5.920074   2.459264   7.40555 C.ar        1 UNL1     -0.0516
     20 C         -7.093931   3.209068   7.264786 C.ar        1 UNL1     -0.0198
     21 C         -8.300785   2.681055   7.687317 C.ar        1 UNL1     0.1169
     22 C         -8.367687   1.397372   8.21317 C.ar        1 UNL1     -0.0198
     23 C         -7.196631   0.64018   8.33704 C.ar        1 UNL1     -0.0516
     24 O         -9.417447   3.455334   7.569172 O.3        1 UNL1     -0.5068
     25 O         -6.282225   -2.723643   7.935444 O.2        1 UNL1     -0.2917
     26 O         -6.155029   -3.516338   5.361734 O.3        1 UNL1     -0.5058
     27 O         -0.217822   -0.248069   2.537902 O.3        1 UNL1     -0.3648
     28 O         0.265294   -1.940457   -0.612432 O.3        1 UNL1     -0.3841
     29 O         -2.461475   0.35743   -0.244605 O.3        1 UNL1     -0.3863
     30 O         -2.444069   -3.316709   -0.267158 O.3        1 UNL1     -0.3829
     31 H         0.634324   -1.882528   1.776076 H        1 UNL1     0.0937
     32 H         0.0   0.0   0.0 H        1 UNL1     0.0671
     33 H         -1.871694   -1.169293   -1.429938 H        1 UNL1     0.0649
     34 H         -3.840191   -1.843572   0.037222 H        1 UNL1     0.0683
     35 H         -3.186278   -2.990894   2.103693 H        1 UNL1     0.1085
     36 H         -4.977304   -2.98952   3.161112 H        1 UNL1     0.0691
     37 H         -2.86231   0.482594   4.610741 H        1 UNL1     0.0691
     38 H         -3.867066   -1.463549   8.966842 H        1 UNL1     0.0385
     39 H         -5.464122   -1.020095   9.600327 H        1 UNL1     0.0385
     40 H         -4.072904   0.966197   8.901394 H        1 UNL1     0.0789
     41 H         -4.98406   2.899731   7.074615 H        1 UNL1     0.0623
     42 H         -7.055711   4.20971   6.841386 H        1 UNL1     0.0654
     43 H         -9.309688   0.968361   8.533316 H        1 UNL1     0.0654
     44 H         -7.287369   -0.362988   8.742336 H        1 UNL1     0.0623
     45 H         -9.302899   4.245173   8.122118 H        1 UNL1     0.2921
     46 H         -5.849524   -4.081142   6.089109 H        1 UNL1     0.2922
     47 H         0.511497   0.322444   2.257781 H        1 UNL1     0.2126
     48 H         1.210277   -1.820581   -0.397095 H        1 UNL1     0.2101
     49 H         -2.030732   0.952047   -0.87918 H        1 UNL1     0.2100
     50 H         -2.706622   -3.319821   -1.210963 H        1 UNL1     0.2102
@<TRIPOS>BOND
     1     1     2    1
     2     1     6    1
     3     2     3    1
     4     3     4    1
     5     3    29    1
     6     3    33    1
     7     4     5    1
     8     5     6    1
     9     5     7    1
    10     5    35    1
    11     7     8    1
    12     8     9   ar
    13     8    13   ar
    14     9    10   ar
    15     9    36    1
    16    10    11   ar
    17    10    26    1
    18    11    12   ar
    19    11    14    1
    20    12    13   ar
    21    12    17    1
    22    13    37    1
    23    14    15    1
    24    14    25    2
    25    15    16    1
    26    15    38    1
    27    15    39    1
    28    16    17    1
    29    16    18    1
    30    16    40    1
    31    18    19   ar
    32    18    23   ar
    33    19    20   ar
    34    19    41    1
    35    20    21   ar
    36    20    42    1
    37    21    22   ar
    38    21    24    1
    39    22    23   ar
    40    22    43    1
    41    23    44    1
    42    24    45    1
    43    26    46    1
    44    27    47    1
    45    28    48    1
    46    29    49    1
    47    30    50    1
    48     1    31    1
    49     1    27    1
    50     2    32    1
    51     2    28    1
    52     4    34    1
    53     4    30    1
