@<TRIPOS>MOLECULE
*****
 50 53 0 0 0
SMALL
GASTEIGER

@<TRIPOS>ATOM
     1 C         0.185179   -1.820365   1.192806 C.3        1 UNL1     0.1889
     2 C         -0.367438   -1.033383   -0.025888 C.3        1 UNL1     0.1342
     3 C         -1.899654   -1.017755   -0.137846 C.3        1 UNL1     0.1174
     4 C         -2.542902   -2.322416   0.338818 C.3        1 UNL1     0.1456
     5 C         -1.970227   -2.805903   1.683678 C.3        1 UNL1     0.2326
     6 O         -0.557325   -2.966978   1.580572 O.3        1 UNL1     -0.3076
     7 O         -2.366753   -1.990991   2.801714 O.3        1 UNL1     -0.4605
     8 C         -2.509557   -2.648256   4.010489 C.ar        1 UNL1     0.1310
     9 C         -3.171952   -3.866307   4.197269 C.ar        1 UNL1     0.0226
     10 C         -3.248301   -4.462153   5.461801 C.ar        1 UNL1     0.1343
     11 C         -2.642974   -3.865579   6.567025 C.ar        1 UNL1     0.1007
     12 C         -2.013954   -2.628862   6.400749 C.ar        1 UNL1     0.1389
     13 C         -1.939603   -2.028651   5.129667 C.ar        1 UNL1     0.0229
     14 C         -2.620685   -4.492315   7.908986 C.2        1 UNL1     0.1740
     15 C         -1.738812   -3.824567   8.922871 C.3        1 UNL1     0.0520
     16 C         -1.87813   -2.316811   8.764068 C.3        1 UNL1     0.1322
     17 O         -1.479483   -1.901747   7.438974 O.3        1 UNL1     -0.4828
     18 C         -3.234513   -1.772119   9.218227 C.ar        1 UNL1     -0.0067
     19 C         -3.30605   -0.968306   10.374506 C.ar        1 UNL1     -0.0516
     20 C         -4.536399   -0.493229   10.844085 C.ar        1 UNL1     -0.0198
     21 C         -5.700515   -0.820308   10.172013 C.ar        1 UNL1     0.1169
     22 C         -5.658963   -1.582177   9.011553 C.ar        1 UNL1     -0.0198
     23 C         -4.426887   -2.04202   8.531356 C.ar        1 UNL1     -0.0516
     24 O         -6.883797   -0.371028   10.680336 O.3        1 UNL1     -0.5068
     25 O         -3.211374   -5.534968   8.178144 O.2        1 UNL1     -0.2917
     26 O         -3.9098   -5.649925   5.576699 O.3        1 UNL1     -0.5058
     27 O         0.494462   -0.995853   2.30515 O.3        1 UNL1     -0.3648
     28 O         0.143832   -1.637226   -1.228669 O.3        1 UNL1     -0.3841
     29 O         -2.443471   0.135477   0.507486 O.3        1 UNL1     -0.3863
     30 O         -2.325137   -3.348341   -0.654029 O.3        1 UNL1     -0.3829
     31 H         1.152368   -2.233313   0.886052 H        1 UNL1     0.0937
     32 H         0.0   0.0   0.0 H        1 UNL1     0.0671
     33 H         -2.157132   -0.906139   -1.200374 H        1 UNL1     0.0649
     34 H         -3.626703   -2.192423   0.433037 H        1 UNL1     0.0683
     35 H         -2.397376   -3.808907   1.807804 H        1 UNL1     0.1085
     36 H         -3.614536   -4.407676   3.368318 H        1 UNL1     0.0691
     37 H         -1.445259   -1.065027   5.026972 H        1 UNL1     0.0691
     38 H         -0.710199   -4.148475   8.731652 H        1 UNL1     0.0385
     39 H         -2.023452   -4.16343   9.924835 H        1 UNL1     0.0385
     40 H         -1.139965   -1.851473   9.431221 H        1 UNL1     0.0789
     41 H         -2.407562   -0.705137   10.925061 H        1 UNL1     0.0623
     42 H         -4.579683   0.115877   11.743601 H        1 UNL1     0.0654
     43 H         -6.563025   -1.831625   8.469006 H        1 UNL1     0.0654
     44 H         -4.430555   -2.625902   7.61598 H        1 UNL1     0.0623
     45 H         -7.155184   0.414058   10.177637 H        1 UNL1     0.2921
     46 H         -3.441624   -6.221446   6.205655 H        1 UNL1     0.2922
     47 H         1.103453   -0.292069   2.041185 H        1 UNL1     0.2126
     48 H         1.090493   -1.402601   -1.27884 H        1 UNL1     0.2101
     49 H         -2.750141   -0.098513   1.397989 H        1 UNL1     0.2100
     50 H         -2.836433   -3.107051   -1.454072 H        1 UNL1     0.2102
@<TRIPOS>BOND
     1     1     2    1
     2     1     6    1
     3     2     3    1
     4     3     4    1
     5     3    29    1
     6     3    33    1
     7     4     5    1
     8     5     6    1
     9     5     7    1
    10     5    35    1
    11     7     8    1
    12     8     9   ar
    13     8    13   ar
    14     9    10   ar
    15     9    36    1
    16    10    11   ar
    17    10    26    1
    18    11    12   ar
    19    11    14    1
    20    12    13   ar
    21    12    17    1
    22    13    37    1
    23    14    15    1
    24    14    25    2
    25    15    16    1
    26    15    38    1
    27    15    39    1
    28    16    17    1
    29    16    18    1
    30    16    40    1
    31    18    19   ar
    32    18    23   ar
    33    19    20   ar
    34    19    41    1
    35    20    21   ar
    36    20    42    1
    37    21    22   ar
    38    21    24    1
    39    22    23   ar
    40    22    43    1
    41    23    44    1
    42    24    45    1
    43    26    46    1
    44    27    47    1
    45    28    48    1
    46    29    49    1
    47    30    50    1
    48     1    31    1
    49     1    27    1
    50     2    32    1
    51     2    28    1
    52     4    34    1
    53     4    30    1
