@<TRIPOS>MOLECULE
*****
 50 53 0 0 0
SMALL
GASTEIGER

@<TRIPOS>ATOM
     1 C         0.941822   -1.779176   -0.84753 C.3        1 UNL1     0.1889
     2 C         -0.274857   -0.833853   -0.657803 C.3        1 UNL1     0.1342
     3 C         -1.535666   -1.514767   -0.103563 C.3        1 UNL1     0.1174
     4 C         -1.701353   -2.952632   -0.601767 C.3        1 UNL1     0.1456
     5 C         -0.397552   -3.765461   -0.502904 C.3        1 UNL1     0.2326
     6 O         0.638996   -3.11216   -1.232037 O.3        1 UNL1     -0.3076
     7 O         -0.022879   -4.085756   0.849262 O.3        1 UNL1     -0.4605
     8 C         0.644123   -5.28472   1.025673 C.ar        1 UNL1     0.1310
     9 C         0.282874   -6.505859   0.446347 C.ar        1 UNL1     0.0226
     10 C         1.034694   -7.664896   0.672852 C.ar        1 UNL1     0.1343
     11 C         2.180779   -7.625769   1.46582 C.ar        1 UNL1     0.1007
     12 C         2.528343   -6.421104   2.082881 C.ar        1 UNL1     0.1389
     13 C         1.770728   -5.256425   1.857106 C.ar        1 UNL1     0.0229
     14 C         3.05887   -8.801003   1.670598 C.2        1 UNL1     0.1740
     15 C         4.360732   -8.525804   2.364118 C.3        1 UNL1     0.0520
     16 C         4.106729   -7.531574   3.488816 C.3        1 UNL1     0.1322
     17 O         3.573281   -6.293953   2.968434 O.3        1 UNL1     -0.4828
     18 C         3.319294   -8.117675   4.663191 C.ar        1 UNL1     -0.0067
     19 C         2.761251   -7.250175   5.624568 C.ar        1 UNL1     -0.0516
     20 C         2.075942   -7.755175   6.736003 C.ar        1 UNL1     -0.0198
     21 C         1.948496   -9.122795   6.900928 C.ar        1 UNL1     0.1169
     22 C         2.458153   -10.001597   5.953936 C.ar        1 UNL1     -0.0198
     23 C         3.127494   -9.496376   4.832869 C.ar        1 UNL1     -0.0516
     24 O         1.307431   -9.57864   8.015218 O.3        1 UNL1     -0.5068
     25 O         2.799745   -9.921772   1.240232 O.2        1 UNL1     -0.2917
     26 O         0.628137   -8.824169   0.079234 O.3        1 UNL1     -0.5058
     27 O         1.860801   -1.741612   0.23268 O.3        1 UNL1     -0.3648
     28 O         -0.619234   -0.271226   -1.937476 O.3        1 UNL1     -0.3841
     29 O         -1.581696   -1.413934   1.321164 O.3        1 UNL1     -0.3863
     30 O         -2.130583   -2.92978   -1.980509 O.3        1 UNL1     -0.3829
     31 H         1.51057   -1.38998   -1.699076 H        1 UNL1     0.0937
     32 H         0.0   0.0   0.0 H        1 UNL1     0.0671
     33 H         -2.407328   -0.951016   -0.464271 H        1 UNL1     0.0649
     34 H         -2.487107   -3.458414   -0.029773 H        1 UNL1     0.0683
     35 H         -0.625142   -4.696512   -1.03697 H        1 UNL1     0.1085
     36 H         -0.564964   -6.590006   -0.224629 H        1 UNL1     0.0691
     37 H         2.061677   -4.331354   2.350141 H        1 UNL1     0.0691
     38 H         5.051242   -8.113303   1.620771 H        1 UNL1     0.0385
     39 H         4.777931   -9.469409   2.731994 H        1 UNL1     0.0385
     40 H         5.08546   -7.255588   3.904073 H        1 UNL1     0.0789
     41 H         2.855557   -6.172971   5.522642 H        1 UNL1     0.0623
     42 H         1.660417   -7.076277   7.476577 H        1 UNL1     0.0654
     43 H         2.35093   -11.073961   6.065513 H        1 UNL1     0.0654
     44 H         3.503713   -10.211484   4.107663 H        1 UNL1     0.0623
     45 H         1.834324   -9.334886   8.793475 H        1 UNL1     0.2921
     46 H         1.358059   -9.193887   -0.442239 H        1 UNL1     0.2922
     47 H         2.147765   -0.832426   0.396669 H        1 UNL1     0.2126
     48 H         0.078288   0.376772   -2.15495 H        1 UNL1     0.2101
     49 H         -1.920846   -0.542139   1.579516 H        1 UNL1     0.2100
     50 H         -3.037502   -2.560373   -2.007863 H        1 UNL1     0.2102
@<TRIPOS>BOND
     1     1     2    1
     2     1     6    1
     3     2     3    1
     4     3     4    1
     5     3    29    1
     6     3    33    1
     7     4     5    1
     8     5     6    1
     9     5     7    1
    10     5    35    1
    11     7     8    1
    12     8     9   ar
    13     8    13   ar
    14     9    10   ar
    15     9    36    1
    16    10    11   ar
    17    10    26    1
    18    11    12   ar
    19    11    14    1
    20    12    13   ar
    21    12    17    1
    22    13    37    1
    23    14    15    1
    24    14    25    2
    25    15    16    1
    26    15    38    1
    27    15    39    1
    28    16    17    1
    29    16    18    1
    30    16    40    1
    31    18    19   ar
    32    18    23   ar
    33    19    20   ar
    34    19    41    1
    35    20    21   ar
    36    20    42    1
    37    21    22   ar
    38    21    24    1
    39    22    23   ar
    40    22    43    1
    41    23    44    1
    42    24    45    1
    43    26    46    1
    44    27    47    1
    45    28    48    1
    46    29    49    1
    47    30    50    1
    48     1    31    1
    49     1    27    1
    50     2    32    1
    51     2    28    1
    52     4    34    1
    53     4    30    1
