@<TRIPOS>MOLECULE
*****
 50 53 0 0 0
SMALL
GASTEIGER

@<TRIPOS>ATOM
     1 C         -0.940042   -0.920833   -1.743328 C.3        1 UNL1     0.1889
     2 C         -0.969235   0.025806   -0.513302 C.3        1 UNL1     0.1342
     3 C         -2.082142   -0.276117   0.501955 C.3        1 UNL1     0.1174
     4 C         -3.367696   -0.779829   -0.158909 C.3        1 UNL1     0.1456
     5 C         -3.101611   -1.871153   -1.211797 C.3        1 UNL1     0.2326
     6 O         -2.202206   -1.380801   -2.203509 O.3        1 UNL1     -0.3076
     7 O         -2.687536   -3.126979   -0.643674 O.3        1 UNL1     -0.4605
     8 C         -2.058651   -3.057851   0.586469 C.ar        1 UNL1     0.1310
     9 C         -2.667497   -3.300029   1.822574 C.ar        1 UNL1     0.0226
     10 C         -1.93942   -3.221379   3.01573 C.ar        1 UNL1     0.1343
     11 C         -0.577892   -2.921666   2.999839 C.ar        1 UNL1     0.1007
     12 C         0.031848   -2.637589   1.774972 C.ar        1 UNL1     0.1389
     13 C         -0.701054   -2.714145   0.575628 C.ar        1 UNL1     0.0229
     14 C         0.257945   -2.907713   4.222679 C.2        1 UNL1     0.1740
     15 C         1.736539   -2.787532   3.997145 C.3        1 UNL1     0.0520
     16 C         1.972886   -1.786538   2.8746 C.3        1 UNL1     0.1322
     17 O         1.338943   -2.226535   1.653294 O.3        1 UNL1     -0.4828
     18 C         1.663116   -0.339168   3.264328 C.ar        1 UNL1     -0.0067
     19 C         2.169079   0.175284   4.475754 C.ar        1 UNL1     -0.0516
     20 C         1.865489   1.479285   4.88487 C.ar        1 UNL1     -0.0198
     21 C         1.052851   2.274523   4.096806 C.ar        1 UNL1     0.1169
     22 C         0.566836   1.807707   2.882429 C.ar        1 UNL1     -0.0198
     23 C         0.885376   0.51014   2.464209 C.ar        1 UNL1     -0.0516
     24 O         0.747952   3.525809   4.545937 O.3        1 UNL1     -0.5068
     25 O         -0.195522   -3.063603   5.353409 O.2        1 UNL1     -0.2917
     26 O         -2.59275   -3.467863   4.187904 O.3        1 UNL1     -0.5058
     27 O         -0.009564   -1.984258   -1.616342 O.3        1 UNL1     -0.3648
     28 O         -1.168622   1.373283   -0.979409 O.3        1 UNL1     -0.3841
     29 O         -1.608477   -1.150075   1.528586 O.3        1 UNL1     -0.3863
     30 O         -4.037348   0.328508   -0.798319 O.3        1 UNL1     -0.3829
     31 H         -0.560855   -0.329703   -2.584079 H        1 UNL1     0.0937
     32 H         0.0   0.0   0.0 H        1 UNL1     0.0671
     33 H         -2.334432   0.663838   1.012399 H        1 UNL1     0.0649
     34 H         -4.051231   -1.171093   0.60273 H        1 UNL1     0.0683
     35 H         -4.073478   -2.008034   -1.702326 H        1 UNL1     0.1085
     36 H         -3.709174   -3.592259   1.897613 H        1 UNL1     0.0691
     37 H         -0.203329   -2.48726   -0.364737 H        1 UNL1     0.0691
     38 H         2.112064   -3.780191   3.726706 H        1 UNL1     0.0385
     39 H         2.218629   -2.482514   4.932202 H        1 UNL1     0.0385
     40 H         3.04743   -1.802685   2.647411 H        1 UNL1     0.0789
     41 H         2.80166   -0.432083   5.116534 H        1 UNL1     0.0623
     42 H         2.251984   1.860392   5.826884 H        1 UNL1     0.0654
     43 H         -0.058059   2.42728   2.250332 H        1 UNL1     0.0654
     44 H         0.497142   0.181843   1.504865 H        1 UNL1     0.0623
     45 H         1.449269   4.133516   4.260344 H        1 UNL1     0.2921
     46 H         -3.111723   -4.283335   4.103739 H        1 UNL1     0.2922
     47 H         0.029933   -2.286752   -0.698302 H        1 UNL1     0.2126
     48 H         -0.373826   1.878866   -0.721692 H        1 UNL1     0.2101
     49 H         -2.357622   -1.494449   2.040428 H        1 UNL1     0.2100
     50 H         -3.354199   0.971859   -1.079601 H        1 UNL1     0.2102
@<TRIPOS>BOND
     1     1     2    1
     2     1     6    1
     3     2     3    1
     4     3     4    1
     5     3    29    1
     6     3    33    1
     7     4     5    1
     8     5     6    1
     9     5     7    1
    10     5    35    1
    11     7     8    1
    12     8     9   ar
    13     8    13   ar
    14     9    10   ar
    15     9    36    1
    16    10    11   ar
    17    10    26    1
    18    11    12   ar
    19    11    14    1
    20    12    13   ar
    21    12    17    1
    22    13    37    1
    23    14    15    1
    24    14    25    2
    25    15    16    1
    26    15    38    1
    27    15    39    1
    28    16    17    1
    29    16    18    1
    30    16    40    1
    31    18    19   ar
    32    18    23   ar
    33    19    20   ar
    34    19    41    1
    35    20    21   ar
    36    20    42    1
    37    21    22   ar
    38    21    24    1
    39    22    23   ar
    40    22    43    1
    41    23    44    1
    42    24    45    1
    43    26    46    1
    44    27    47    1
    45    28    48    1
    46    29    49    1
    47    30    50    1
    48     1    31    1
    49     1    27    1
    50     2    32    1
    51     2    28    1
    52     4    34    1
    53     4    30    1
