@<TRIPOS>MOLECULE
*****
 50 53 0 0 0
SMALL
GASTEIGER

@<TRIPOS>ATOM
     1 C         -0.316661   -1.374683   1.667566 C.3        1 UNL1     0.1889
     2 C         -0.459864   -0.980936   0.172776 C.3        1 UNL1     0.1342
     3 C         -1.905048   -0.955595   -0.348057 C.3        1 UNL1     0.1174
     4 C         -2.784843   -2.03355   0.289979 C.3        1 UNL1     0.1456
     5 C         -2.620607   -2.100506   1.819328 C.3        1 UNL1     0.2326
     6 O         -1.252665   -2.326393   2.151859 O.3        1 UNL1     -0.3076
     7 O         -3.191285   -0.972378   2.50706 O.3        1 UNL1     -0.4605
     8 C         -3.700798   -1.225426   3.767969 C.ar        1 UNL1     0.1310
     9 C         -4.514694   -2.310637   4.1103 C.ar        1 UNL1     0.0226
     10 C         -4.967643   -2.489936   5.422776 C.ar        1 UNL1     0.1343
     11 C         -4.597735   -1.600543   6.430739 C.ar        1 UNL1     0.1007
     12 C         -3.819093   -0.490434   6.092864 C.ar        1 UNL1     0.1389
     13 C         -3.365965   -0.308926   4.772575 C.ar        1 UNL1     0.0229
     14 C         -4.978394   -1.788192   7.849907 C.2        1 UNL1     0.1740
     15 C         -4.311933   -0.86614   8.828273 C.3        1 UNL1     0.0520
     16 C         -4.245735   0.52432   8.211672 C.3        1 UNL1     0.1322
     17 O         -3.486729   0.504629   6.982611 O.3        1 UNL1     -0.4828
     18 C         -5.606591   1.216844   8.105823 C.ar        1 UNL1     -0.0067
     19 C         -5.738633   2.364405   7.297193 C.ar        1 UNL1     -0.0516
     20 C         -6.956922   3.049288   7.215519 C.ar        1 UNL1     -0.0198
     21 C         -8.046131   2.601955   7.941704 C.ar        1 UNL1     0.1169
     22 C         -7.956427   1.455634   8.72064 C.ar        1 UNL1     -0.0198
     23 C         -6.743357   0.759952   8.788032 C.ar        1 UNL1     -0.0516
     24 O         -9.205587   3.316414   7.866803 O.3        1 UNL1     -0.5068
     25 O         -5.725187   -2.683166   8.236955 O.2        1 UNL1     -0.2917
     26 O         -5.75949   -3.568283   5.690601 O.3        1 UNL1     -0.5058
     27 O         -0.205557   -0.259694   2.537762 O.3        1 UNL1     -0.3648
     28 O         0.265321   -1.937307   -0.622312 O.3        1 UNL1     -0.3841
     29 O         -2.463125   0.354785   -0.23149 O.3        1 UNL1     -0.3863
     30 O         -2.440334   -3.319187   -0.270504 O.3        1 UNL1     -0.3829
     31 H         0.645451   -1.889452   1.764678 H        1 UNL1     0.0937
     32 H         0.0   0.0   0.0 H        1 UNL1     0.0671
     33 H         -1.876623   -1.165752   -1.426364 H        1 UNL1     0.0649
     34 H         -3.837215   -1.849537   0.046969 H        1 UNL1     0.0683
     35 H         -3.171912   -3.005053   2.105222 H        1 UNL1     0.1085
     36 H         -4.791142   -3.067413   3.384361 H        1 UNL1     0.0691
     37 H         -2.761912   0.564135   4.535137 H        1 UNL1     0.0691
     38 H         -3.308713   -1.259691   9.02371 H        1 UNL1     0.0385
     39 H         -4.872352   -0.875501   9.769347 H        1 UNL1     0.0385
     40 H         -3.652487   1.151625   8.890691 H        1 UNL1     0.0789
     41 H         -4.89602   2.740935   6.724586 H        1 UNL1     0.0623
     42 H         -7.042832   3.939811   6.597781 H        1 UNL1     0.0654
     43 H         -8.807349   1.087954   9.28158 H        1 UNL1     0.0654
     44 H         -6.712059   -0.137668   9.398067 H        1 UNL1     0.0623
     45 H         -9.052847   4.190994   8.259864 H        1 UNL1     0.2921
     46 H         -5.366534   -4.087522   6.409898 H        1 UNL1     0.2922
     47 H         0.521588   0.313166   2.256778 H        1 UNL1     0.2126
     48 H         1.211122   -1.816959   -0.410866 H        1 UNL1     0.2101
     49 H         -2.03625   0.952873   -0.865416 H        1 UNL1     0.2100
     50 H         -2.707301   -3.318496   -1.213075 H        1 UNL1     0.2102
@<TRIPOS>BOND
     1     1     2    1
     2     1     6    1
     3     2     3    1
     4     3     4    1
     5     3    29    1
     6     3    33    1
     7     4     5    1
     8     5     6    1
     9     5     7    1
    10     5    35    1
    11     7     8    1
    12     8     9   ar
    13     8    13   ar
    14     9    10   ar
    15     9    36    1
    16    10    11   ar
    17    10    26    1
    18    11    12   ar
    19    11    14    1
    20    12    13   ar
    21    12    17    1
    22    13    37    1
    23    14    15    1
    24    14    25    2
    25    15    16    1
    26    15    38    1
    27    15    39    1
    28    16    17    1
    29    16    18    1
    30    16    40    1
    31    18    19   ar
    32    18    23   ar
    33    19    20   ar
    34    19    41    1
    35    20    21   ar
    36    20    42    1
    37    21    22   ar
    38    21    24    1
    39    22    23   ar
    40    22    43    1
    41    23    44    1
    42    24    45    1
    43    26    46    1
    44    27    47    1
    45    28    48    1
    46    29    49    1
    47    30    50    1
    48     1    31    1
    49     1    27    1
    50     2    32    1
    51     2    28    1
    52     4    34    1
    53     4    30    1
