@<TRIPOS>MOLECULE
*****
 50 53 0 0 0
SMALL
GASTEIGER

@<TRIPOS>ATOM
     1 C         1.372783   1.690556   0.168196 C.3        1 UNL1     0.1889
     2 C         0.639146   0.600765   -0.65889 C.3        1 UNL1     0.1342
     3 C         1.565265   -0.336293   -1.449264 C.3        1 UNL1     0.1174
     4 C         2.815617   0.371598   -1.977114 C.3        1 UNL1     0.1456
     5 C         3.494974   1.245724   -0.907188 C.3        1 UNL1     0.2326
     6 O         2.567835   2.203763   -0.401773 O.3        1 UNL1     -0.3076
     7 O         4.142949   0.484473   0.12816 O.3        1 UNL1     -0.4605
     8 C         4.107543   1.034077   1.397101 C.ar        1 UNL1     0.1310
     9 C         4.507635   2.332929   1.72908 C.ar        1 UNL1     0.0226
     10 C         4.417263   2.804177   3.044245 C.ar        1 UNL1     0.1343
     11 C         3.90181   1.99513   4.055973 C.ar        1 UNL1     0.1007
     12 C         3.537349   0.682507   3.744572 C.ar        1 UNL1     0.1389
     13 C         3.630787   0.208034   2.422613 C.ar        1 UNL1     0.0229
     14 C         3.705829   2.469729   5.445398 C.2        1 UNL1     0.1740
     15 C         2.937039   1.546596   6.344473 C.3        1 UNL1     0.0520
     16 C         3.378607   0.117775   6.059087 C.3        1 UNL1     0.1322
     17 O         3.119686   -0.233572   4.681921 O.3        1 UNL1     -0.4828
     18 C         4.798315   -0.195605   6.53757 C.ar        1 UNL1     -0.0067
     19 C         5.719041   -0.775817   5.641004 C.ar        1 UNL1     -0.0516
     20 C         7.010385   -1.118553   6.059245 C.ar        1 UNL1     -0.0198
     21 C         7.389891   -0.893427   7.370397 C.ar        1 UNL1     0.1169
     22 C         6.516707   -0.292859   8.268009 C.ar        1 UNL1     -0.0198
     23 C         5.231462   0.066898   7.84519 C.ar        1 UNL1     -0.0516
     24 O         8.642816   -1.274954   7.751205 O.3        1 UNL1     -0.5068
     25 O         4.067447   3.575331   5.839557 O.2        1 UNL1     -0.2917
     26 O         4.825153   4.080416   3.301979 O.3        1 UNL1     -0.5058
     27 O         1.550761   1.34127   1.531688 O.3        1 UNL1     -0.3648
     28 O         -0.222992   1.253009   -1.60968 O.3        1 UNL1     -0.3841
     29 O         1.87146   -1.50664   -0.688563 O.3        1 UNL1     -0.3863
     30 O         2.449608   1.208158   -3.095994 O.3        1 UNL1     -0.3829
     31 H         0.708546   2.561198   0.197357 H        1 UNL1     0.0937
     32 H         0.0   -0.0   0.0 H        1 UNL1     0.0671
     33 H         1.009329   -0.695659   -2.326482 H        1 UNL1     0.0649
     34 H         3.533896   -0.366744   -2.350381 H        1 UNL1     0.0683
     35 H         4.257032   1.803314   -1.465973 H        1 UNL1     0.1085
     36 H         4.864407   3.029187   0.978041 H        1 UNL1     0.0691
     37 H         3.341673   -0.818213   2.206452 H        1 UNL1     0.0691
     38 H         1.872416   1.682073   6.125952 H        1 UNL1     0.0385
     39 H         3.111407   1.83342   7.387117 H        1 UNL1     0.0385
     40 H         2.723252   -0.545619   6.639551 H        1 UNL1     0.0789
     41 H         5.442434   -0.971064   4.609007 H        1 UNL1     0.0623
     42 H         7.707289   -1.576304   5.361534 H        1 UNL1     0.0654
     43 H         6.808654   -0.098245   9.293096 H        1 UNL1     0.0654
     44 H         4.57902   0.543789   8.570269 H        1 UNL1     0.0623
     45 H         9.045886   -1.774697   7.022845 H        1 UNL1     0.2921
     46 H         5.134768   4.493257   2.480327 H        1 UNL1     0.2922
     47 H         2.036774   0.507876   1.603134 H        1 UNL1     0.2126
     48 H         0.333353   1.885577   -2.103715 H        1 UNL1     0.2101
     49 H         1.344109   -2.255726   -1.008821 H        1 UNL1     0.2100
     50 H         2.278786   2.110404   -2.754696 H        1 UNL1     0.2102
@<TRIPOS>BOND
     1     1     2    1
     2     1     6    1
     3     2     3    1
     4     3     4    1
     5     3    29    1
     6     3    33    1
     7     4     5    1
     8     5     6    1
     9     5     7    1
    10     5    35    1
    11     7     8    1
    12     8     9   ar
    13     8    13   ar
    14     9    10   ar
    15     9    36    1
    16    10    11   ar
    17    10    26    1
    18    11    12   ar
    19    11    14    1
    20    12    13   ar
    21    12    17    1
    22    13    37    1
    23    14    15    1
    24    14    25    2
    25    15    16    1
    26    15    38    1
    27    15    39    1
    28    16    17    1
    29    16    18    1
    30    16    40    1
    31    18    19   ar
    32    18    23   ar
    33    19    20   ar
    34    19    41    1
    35    20    21   ar
    36    20    42    1
    37    21    22   ar
    38    21    24    1
    39    22    23   ar
    40    22    43    1
    41    23    44    1
    42    24    45    1
    43    26    46    1
    44    27    47    1
    45    28    48    1
    46    29    49    1
    47    30    50    1
    48     1    31    1
    49     1    27    1
    50     2    32    1
    51     2    28    1
    52     4    34    1
    53     4    30    1
