@<TRIPOS>MOLECULE
*****
 50 53 0 0 0
SMALL
GASTEIGER

@<TRIPOS>ATOM
     1 C         -0.356517   -1.409792   1.629781 C.3        1 UNL1     0.1889
     2 C         -0.484601   -0.973425   0.145491 C.3        1 UNL1     0.1342
     3 C         -1.926848   -0.898528   -0.378704 C.3        1 UNL1     0.1174
     4 C         -2.835309   -1.970725   0.228098 C.3        1 UNL1     0.1456
     5 C         -2.678238   -2.081946   1.75562 C.3        1 UNL1     0.2326
     6 O         -1.317497   -2.350387   2.086062 O.3        1 UNL1     -0.3076
     7 O         -3.223287   -0.958484   2.471214 O.3        1 UNL1     -0.4605
     8 C         -2.667594   -0.702545   3.711871 C.ar        1 UNL1     0.1310
     9 C         -2.816406   0.484518   4.437154 C.ar        1 UNL1     0.0226
     10 C         -2.226592   0.641648   5.697048 C.ar        1 UNL1     0.1343
     11 C         -1.492728   -0.394384   6.273175 C.ar        1 UNL1     0.1007
     12 C         -1.302836   -1.569345   5.540924 C.ar        1 UNL1     0.1389
     13 C         -1.893783   -1.726104   4.272997 C.ar        1 UNL1     0.0229
     14 C         -0.918515   -0.313392   7.636213 C.2        1 UNL1     0.1740
     15 C         -0.356015   -1.593416   8.180898 C.3        1 UNL1     0.0520
     16 C         0.383987   -2.310051   7.059832 C.3        1 UNL1     0.1322
     17 O         -0.509854   -2.610193   5.965286 O.3        1 UNL1     -0.4828
     18 C         1.687354   -1.623445   6.644461 C.ar        1 UNL1     -0.0067
     19 C         2.827455   -1.747567   7.464811 C.ar        1 UNL1     -0.0516
     20 C         4.021642   -1.093678   7.138758 C.ar        1 UNL1     -0.0198
     21 C         4.086227   -0.308578   6.001537 C.ar        1 UNL1     0.1169
     22 C         2.990368   -0.193877   5.156093 C.ar        1 UNL1     -0.0198
     23 C         1.801639   -0.862528   5.472139 C.ar        1 UNL1     -0.0516
     24 O         5.254541   0.343448   5.736385 O.3        1 UNL1     -0.5068
     25 O         -0.959479   0.700648   8.327972 O.2        1 UNL1     -0.2917
     26 O         -2.408954   1.824578   6.352034 O.3        1 UNL1     -0.5058
     27 O         -0.220973   -0.321182   2.529416 O.3        1 UNL1     -0.3648
     28 O         0.219539   -1.926254   -0.672439 O.3        1 UNL1     -0.3841
     29 O         -2.452754   0.42178   -0.229227 O.3        1 UNL1     -0.3863
     30 O         -2.520709   -3.249328   -0.365107 O.3        1 UNL1     -0.3829
     31 H         0.592216   -1.95066   1.716081 H        1 UNL1     0.0937
     32 H         0.0   0.0   0.0 H        1 UNL1     0.0671
     33 H         -1.899783   -1.080886   -1.462094 H        1 UNL1     0.0649
     34 H         -3.881933   -1.754319   -0.013038 H        1 UNL1     0.0683
     35 H         -3.252766   -2.979738   2.015938 H        1 UNL1     0.1085
     36 H         -3.421065   1.305918   4.06863 H        1 UNL1     0.0691
     37 H         -1.729886   -2.650151   3.722753 H        1 UNL1     0.0691
     38 H         -1.195054   -2.194329   8.547564 H        1 UNL1     0.0385
     39 H         0.298148   -1.365645   9.029408 H        1 UNL1     0.0385
     40 H         0.684023   -3.293287   7.446801 H        1 UNL1     0.0789
     41 H         2.799663   -2.3506   8.367712 H        1 UNL1     0.0623
     42 H         4.890345   -1.187632   7.785704 H        1 UNL1     0.0654
     43 H         3.034632   0.40622   4.255074 H        1 UNL1     0.0654
     44 H         0.968566   -0.759127   4.783559 H        1 UNL1     0.0623
     45 H         5.773307   -0.196043   5.11788 H        1 UNL1     0.2921
     46 H         -2.016752   1.767807   7.237678 H        1 UNL1     0.2922
     47 H         0.64669   0.093626   2.424749 H        1 UNL1     0.2126
     48 H         0.046914   -1.679051   -1.601322 H        1 UNL1     0.2101
     49 H         -2.996011   0.471711   0.573376 H        1 UNL1     0.2100
     50 H         -2.326047   -3.10183   -1.313824 H        1 UNL1     0.2102
@<TRIPOS>BOND
     1     1     2    1
     2     1     6    1
     3     2     3    1
     4     3     4    1
     5     3    29    1
     6     3    33    1
     7     4     5    1
     8     5     6    1
     9     5     7    1
    10     5    35    1
    11     7     8    1
    12     8     9   ar
    13     8    13   ar
    14     9    10   ar
    15     9    36    1
    16    10    11   ar
    17    10    26    1
    18    11    12   ar
    19    11    14    1
    20    12    13   ar
    21    12    17    1
    22    13    37    1
    23    14    15    1
    24    14    25    2
    25    15    16    1
    26    15    38    1
    27    15    39    1
    28    16    17    1
    29    16    18    1
    30    16    40    1
    31    18    19   ar
    32    18    23   ar
    33    19    20   ar
    34    19    41    1
    35    20    21   ar
    36    20    42    1
    37    21    22   ar
    38    21    24    1
    39    22    23   ar
    40    22    43    1
    41    23    44    1
    42    24    45    1
    43    26    46    1
    44    27    47    1
    45    28    48    1
    46    29    49    1
    47    30    50    1
    48     1    31    1
    49     1    27    1
    50     2    32    1
    51     2    28    1
    52     4    34    1
    53     4    30    1
