@<TRIPOS>MOLECULE
*****
 50 53 0 0 0
SMALL
GASTEIGER

@<TRIPOS>ATOM
     1 C         -1.282294   -1.747761   0.268065 C.3        1 UNL1     0.1889
     2 C         -0.690763   -0.397261   0.75405 C.3        1 UNL1     0.1342
     3 C         0.030593   -0.463671   2.10893 C.3        1 UNL1     0.1174
     4 C         -0.616903   -1.455997   3.07803 C.3        1 UNL1     0.1456
     5 C         -0.931053   -2.809347   2.414616 C.3        1 UNL1     0.2326
     6 O         -1.77438   -2.611408   1.282146 O.3        1 UNL1     -0.3076
     7 O         0.242214   -3.588015   2.117226 O.3        1 UNL1     -0.4605
     8 C         0.837081   -3.344351   0.892363 C.ar        1 UNL1     0.1310
     9 C         2.161835   -2.936992   0.701616 C.ar        1 UNL1     0.0226
     10 C         2.678074   -2.731961   -0.583437 C.ar        1 UNL1     0.1343
     11 C         1.888197   -2.952559   -1.710944 C.ar        1 UNL1     0.1007
     12 C         0.551828   -3.319804   -1.531966 C.ar        1 UNL1     0.1389
     13 C         0.032232   -3.523336   -0.239671 C.ar        1 UNL1     0.0229
     14 C         2.4065   -2.832356   -3.093357 C.2        1 UNL1     0.1740
     15 C         1.488763   -3.320326   -4.175574 C.3        1 UNL1     0.0520
     16 C         0.068288   -2.894217   -3.831132 C.3        1 UNL1     0.1322
     17 O         -0.343952   -3.458393   -2.566682 O.3        1 UNL1     -0.4828
     18 C         -0.172245   -1.388352   -3.962433 C.ar        1 UNL1     -0.0067
     19 C         -1.184751   -0.921429   -4.825582 C.ar        1 UNL1     -0.0516
     20 C         -1.399577   0.450296   -5.004985 C.ar        1 UNL1     -0.0198
     21 C         -0.60558   1.363172   -4.334125 C.ar        1 UNL1     0.1169
     22 C         0.377384   0.934123   -3.451778 C.ar        1 UNL1     -0.0198
     23 C         0.580221   -0.437517   -3.258087 C.ar        1 UNL1     -0.0516
     24 O         -0.819163   2.690754   -4.562841 O.3        1 UNL1     -0.5068
     25 O         3.539128   -2.438507   -3.358917 O.2        1 UNL1     -0.2917
     26 O         3.977773   -2.333745   -0.700883 O.3        1 UNL1     -0.5058
     27 O         -0.442853   -2.436809   -0.644809 O.3        1 UNL1     -0.3648
     28 O         -1.766495   0.550214   0.88746 O.3        1 UNL1     -0.3841
     29 O         1.428519   -0.698699   1.928107 O.3        1 UNL1     -0.3863
     30 O         -1.845825   -0.890785   3.58397 O.3        1 UNL1     -0.3829
     31 H         -2.175797   -1.50526   -0.317533 H        1 UNL1     0.0937
     32 H         0.0   0.0   0.0 H        1 UNL1     0.0671
     33 H         -0.040446   0.528718   2.575661 H        1 UNL1     0.0649
     34 H         0.039458   -1.619436   3.939934 H        1 UNL1     0.0683
     35 H         -1.527036   -3.340797   3.167107 H        1 UNL1     0.1085
     36 H         2.842733   -2.802745   1.534968 H        1 UNL1     0.0691
     37 H         -1.011719   -3.807972   -0.127234 H        1 UNL1     0.0691
     38 H         1.574997   -4.411409   -4.215923 H        1 UNL1     0.0385
     39 H         1.820828   -2.915161   -5.137527 H        1 UNL1     0.0385
     40 H         -0.597632   -3.360362   -4.569901 H        1 UNL1     0.0789
     41 H         -1.815413   -1.61775   -5.370607 H        1 UNL1     0.0623
     42 H         -2.175644   0.797862   -5.682428 H        1 UNL1     0.0654
     43 H         0.994879   1.640469   -2.909851 H        1 UNL1     0.0654
     44 H         1.349877   -0.737093   -2.553296 H        1 UNL1     0.0623
     45 H         -1.157694   3.092093   -3.746116 H        1 UNL1     0.2921
     46 H         4.433481   -2.901738   -1.342075 H        1 UNL1     0.2922
     47 H         -0.850348   -3.273746   -0.90814 H        1 UNL1     0.2126
     48 H         -2.229904   0.570074   0.028048 H        1 UNL1     0.2101
     49 H         1.565079   -1.34848   1.220343 H        1 UNL1     0.2100
     50 H         -2.563773   -1.537689   3.423415 H        1 UNL1     0.2102
@<TRIPOS>BOND
     1     1     2    1
     2     1     6    1
     3     2     3    1
     4     3     4    1
     5     3    29    1
     6     3    33    1
     7     4     5    1
     8     5     6    1
     9     5     7    1
    10     5    35    1
    11     7     8    1
    12     8     9   ar
    13     8    13   ar
    14     9    10   ar
    15     9    36    1
    16    10    11   ar
    17    10    26    1
    18    11    12   ar
    19    11    14    1
    20    12    13   ar
    21    12    17    1
    22    13    37    1
    23    14    15    1
    24    14    25    2
    25    15    16    1
    26    15    38    1
    27    15    39    1
    28    16    17    1
    29    16    18    1
    30    16    40    1
    31    18    19   ar
    32    18    23   ar
    33    19    20   ar
    34    19    41    1
    35    20    21   ar
    36    20    42    1
    37    21    22   ar
    38    21    24    1
    39    22    23   ar
    40    22    43    1
    41    23    44    1
    42    24    45    1
    43    26    46    1
    44    27    47    1
    45    28    48    1
    46    29    49    1
    47    30    50    1
    48     1    31    1
    49     1    27    1
    50     2    32    1
    51     2    28    1
    52     4    34    1
    53     4    30    1
