@<TRIPOS>MOLECULE
*****
 50 53 0 0 0
SMALL
GASTEIGER

@<TRIPOS>ATOM
     1 C         -0.557508   -1.409478   1.572692 C.3        1 UNL1     0.1889
     2 C         -0.5741   -0.929888   0.096325 C.3        1 UNL1     0.1342
     3 C         -1.976872   -0.716047   -0.492715 C.3        1 UNL1     0.1174
     4 C         -3.00395   -1.717355   0.04171 C.3        1 UNL1     0.1456
     5 C         -2.932318   -1.876695   1.571364 C.3        1 UNL1     0.2326
     6 O         -1.617993   -2.271675   1.957898 O.3        1 UNL1     -0.3076
     7 O         -3.4119   -0.726048   2.290624 O.3        1 UNL1     -0.4605
     8 C         -4.004099   -0.979811   3.514729 C.ar        1 UNL1     0.1310
     9 C         -4.948805   -1.980671   3.765945 C.ar        1 UNL1     0.0226
     10 C         -5.479013   -2.170154   5.047693 C.ar        1 UNL1     0.1343
     11 C         -5.059207   -1.378003   6.115448 C.ar        1 UNL1     0.1007
     12 C         -4.146929   -0.348643   5.868571 C.ar        1 UNL1     0.1389
     13 C         -3.615936   -0.156613   4.579151 C.ar        1 UNL1     0.0229
     14 C         -5.523509   -1.589112   7.506135 C.2        1 UNL1     0.1740
     15 C         -4.80431   -0.796834   8.558084 C.3        1 UNL1     0.0520
     16 C         -4.55516   0.605091   8.019114 C.3        1 UNL1     0.1322
     17 O         -3.747158   0.558315   6.822446 O.3        1 UNL1     -0.4828
     18 C         -5.824007   1.452068   7.895096 C.ar        1 UNL1     -0.0067
     19 C         -6.078509   2.146526   6.694608 C.ar        1 UNL1     -0.0516
     20 C         -7.205024   2.967524   6.564656 C.ar        1 UNL1     -0.0198
     21 C         -8.078739   3.107869   7.628025 C.ar        1 UNL1     0.1169
     22 C         -7.872975   2.410644   8.8114 C.ar        1 UNL1     -0.0198
     23 C         -6.756436   1.575138   8.935203 C.ar        1 UNL1     -0.0516
     24 O         -9.144555   3.94562   7.477657 O.3        1 UNL1     -0.5068
     25 O         -6.382463   -2.410964   7.81475 O.2        1 UNL1     -0.2917
     26 O         -6.397626   -3.163132   5.225823 O.3        1 UNL1     -0.5058
     27 O         -0.371975   -0.357815   2.506698 O.3        1 UNL1     -0.3648
     28 O         0.083661   -1.922334   -0.713062 O.3        1 UNL1     -0.3841
     29 O         -2.392478   0.6418   -0.332543 O.3        1 UNL1     -0.3863
     30 O         -2.773182   -3.004929   -0.570326 O.3        1 UNL1     -0.3829
     31 H         0.335126   -2.033824   1.68878 H        1 UNL1     0.0937
     32 H         0.0   0.0   0.0 H        1 UNL1     0.0671
     33 H         -1.912657   -0.875415   -1.578163 H        1 UNL1     0.0649
     34 H         -4.014648   -1.403957   -0.242322 H        1 UNL1     0.0683
     35 H         -3.594942   -2.725935   1.78017 H        1 UNL1     0.1085
     36 H         -5.27407   -2.665384   2.990386 H        1 UNL1     0.0691
     37 H         -2.908027   0.65253   4.412879 H        1 UNL1     0.0691
     38 H         -3.861301   -1.310779   8.772846 H        1 UNL1     0.0385
     39 H         -5.405119   -0.787627   9.473902 H        1 UNL1     0.0385
     40 H         -3.927672   1.127571   8.753821 H        1 UNL1     0.0789
     41 H         -5.402997   2.060196   5.84851 H        1 UNL1     0.0623
     42 H         -7.383942   3.507158   5.637944 H        1 UNL1     0.0654
     43 H         -8.55895   2.50153   9.645119 H        1 UNL1     0.0654
     44 H         -6.632479   1.037286   9.870187 H        1 UNL1     0.0623
     45 H         -8.809442   4.839424   7.30009 H        1 UNL1     0.2921
     46 H         -6.086807   -3.771624   5.914693 H        1 UNL1     0.2922
     47 H         0.439373   0.129204   2.305733 H        1 UNL1     0.2126
     48 H         1.002899   -1.983138   -0.388969 H        1 UNL1     0.2101
     49 H         -1.862013   1.218961   -0.904632 H        1 UNL1     0.2100
     50 H         -2.959104   -2.920974   -1.5285 H        1 UNL1     0.2102
@<TRIPOS>BOND
     1     1     2    1
     2     1     6    1
     3     2     3    1
     4     3     4    1
     5     3    29    1
     6     3    33    1
     7     4     5    1
     8     5     6    1
     9     5     7    1
    10     5    35    1
    11     7     8    1
    12     8     9   ar
    13     8    13   ar
    14     9    10   ar
    15     9    36    1
    16    10    11   ar
    17    10    26    1
    18    11    12   ar
    19    11    14    1
    20    12    13   ar
    21    12    17    1
    22    13    37    1
    23    14    15    1
    24    14    25    2
    25    15    16    1
    26    15    38    1
    27    15    39    1
    28    16    17    1
    29    16    18    1
    30    16    40    1
    31    18    19   ar
    32    18    23   ar
    33    19    20   ar
    34    19    41    1
    35    20    21   ar
    36    20    42    1
    37    21    22   ar
    38    21    24    1
    39    22    23   ar
    40    22    43    1
    41    23    44    1
    42    24    45    1
    43    26    46    1
    44    27    47    1
    45    28    48    1
    46    29    49    1
    47    30    50    1
    48     1    31    1
    49     1    27    1
    50     2    32    1
    51     2    28    1
    52     4    34    1
    53     4    30    1
