@<TRIPOS>MOLECULE
*****
 50 53 0 0 0
SMALL
GASTEIGER

@<TRIPOS>ATOM
     1 C         -0.338767   -1.334708   1.695463 C.3        1 UNL1     0.1889
     2 C         -0.461797   -0.976855   0.189892 C.3        1 UNL1     0.1342
     3 C         -1.899781   -0.964971   -0.350967 C.3        1 UNL1     0.1174
     4 C         -2.787755   -2.028007   0.300626 C.3        1 UNL1     0.1456
     5 C         -2.644287   -2.058322   1.833226 C.3        1 UNL1     0.2326
     6 O         -1.280903   -2.275245   2.189593 O.3        1 UNL1     -0.3076
     7 O         -3.224683   -0.914501   2.486016 O.3        1 UNL1     -0.4605
     8 C         -3.741028   -1.13523   3.750213 C.ar        1 UNL1     0.1310
     9 C         -4.557622   -2.210864   4.115569 C.ar        1 UNL1     0.0226
     10 C         -5.017612   -2.356604   5.42975 C.ar        1 UNL1     0.1343
     11 C         -4.65226   -1.442273   6.416846 C.ar        1 UNL1     0.1007
     12 C         -3.870922   -0.341612   6.05513 C.ar        1 UNL1     0.1389
     13 C         -3.41071   -0.193861   4.733084 C.ar        1 UNL1     0.0229
     14 C         -5.040529   -1.593714   7.838277 C.2        1 UNL1     0.1740
     15 C         -4.378445   -0.647693   8.796524 C.3        1 UNL1     0.0520
     16 C         -4.307841   0.726687   8.14533 C.3        1 UNL1     0.1322
     17 O         -3.542403   0.675393   6.92118 O.3        1 UNL1     -0.4828
     18 C         -5.667541   1.417274   8.014833 C.ar        1 UNL1     -0.0067
     19 C         -6.039587   1.986231   6.779486 C.ar        1 UNL1     -0.0516
     20 C         -7.255221   2.666254   6.638896 C.ar        1 UNL1     -0.0198
     21 C         -8.102299   2.790269   7.725591 C.ar        1 UNL1     0.1169
     22 C         -7.778924   2.211914   8.946154 C.ar        1 UNL1     -0.0198
     23 C         -6.571773   1.51595   9.082082 C.ar        1 UNL1     -0.0516
     24 O         -9.260242   3.492008   7.560876 O.3        1 UNL1     -0.5068
     25 O         -5.790096   -2.47809   8.24388 O.2        1 UNL1     -0.2917
     26 O         -5.81176   -3.427276   5.720568 O.3        1 UNL1     -0.5058
     27 O         -0.239919   -0.199187   2.540216 O.3        1 UNL1     -0.3648
     28 O         0.274486   -1.951423   -0.572217 O.3        1 UNL1     -0.3841
     29 O         -2.459887   0.347425   -0.273307 O.3        1 UNL1     -0.3863
     30 O         -2.435175   -3.326414   -0.224271 O.3        1 UNL1     -0.3829
     31 H         0.622132   -1.846336   1.817889 H        1 UNL1     0.0937
     32 H         0.0   0.0   0.0 H        1 UNL1     0.0671
     33 H         -1.856629   -1.200787   -1.423463 H        1 UNL1     0.0649
     34 H         -3.836797   -1.850588   0.03903 H        1 UNL1     0.0683
     35 H         -3.199083   -2.956175   2.133128 H        1 UNL1     0.1085
     36 H         -4.830886   -2.985556   3.407544 H        1 UNL1     0.0691
     37 H         -2.804685   0.672491   4.476841 H        1 UNL1     0.0691
     38 H         -3.376597   -1.036885   9.007136 H        1 UNL1     0.0385
     39 H         -4.94381   -0.632863   9.734565 H        1 UNL1     0.0385
     40 H         -3.717644   1.370539   8.811395 H        1 UNL1     0.0789
     41 H         -5.387989   1.910506   5.913844 H        1 UNL1     0.0623
     42 H         -7.525399   3.110904   5.684274 H        1 UNL1     0.0654
     43 H         -8.441849   2.290063   9.799578 H        1 UNL1     0.0654
     44 H         -6.35609   1.06766   10.047153 H        1 UNL1     0.0623
     45 H         -9.034103   4.402879   7.312095 H        1 UNL1     0.2921
     46 H         -5.411681   -3.940888   6.439978 H        1 UNL1     0.2922
     47 H         0.501888   0.358183   2.266499 H        1 UNL1     0.2126
     48 H         1.206734   -1.881043   -0.289918 H        1 UNL1     0.2101
     49 H         -2.018733   0.932684   -0.909428 H        1 UNL1     0.2100
     50 H         -2.663319   -3.338611   -1.176906 H        1 UNL1     0.2102
@<TRIPOS>BOND
     1     1     2    1
     2     1     6    1
     3     2     3    1
     4     3     4    1
     5     3    29    1
     6     3    33    1
     7     4     5    1
     8     5     6    1
     9     5     7    1
    10     5    35    1
    11     7     8    1
    12     8     9   ar
    13     8    13   ar
    14     9    10   ar
    15     9    36    1
    16    10    11   ar
    17    10    26    1
    18    11    12   ar
    19    11    14    1
    20    12    13   ar
    21    12    17    1
    22    13    37    1
    23    14    15    1
    24    14    25    2
    25    15    16    1
    26    15    38    1
    27    15    39    1
    28    16    17    1
    29    16    18    1
    30    16    40    1
    31    18    19   ar
    32    18    23   ar
    33    19    20   ar
    34    19    41    1
    35    20    21   ar
    36    20    42    1
    37    21    22   ar
    38    21    24    1
    39    22    23   ar
    40    22    43    1
    41    23    44    1
    42    24    45    1
    43    26    46    1
    44    27    47    1
    45    28    48    1
    46    29    49    1
    47    30    50    1
    48     1    31    1
    49     1    27    1
    50     2    32    1
    51     2    28    1
    52     4    34    1
    53     4    30    1
