@<TRIPOS>MOLECULE
*****
 50 53 0 0 0
SMALL
GASTEIGER

@<TRIPOS>ATOM
     1 C         0.938087   -1.930059   -0.407027 C.3        1 UNL1     0.1889
     2 C         -0.169657   -0.869348   -0.647312 C.3        1 UNL1     0.1342
     3 C         -1.603139   -1.379861   -0.435249 C.3        1 UNL1     0.1174
     4 C         -1.780926   -2.841133   -0.855004 C.3        1 UNL1     0.1456
     5 C         -0.656623   -3.748837   -0.323611 C.3        1 UNL1     0.2326
     6 O         0.609271   -3.264097   -0.765658 O.3        1 UNL1     -0.3076
     7 O         -0.715789   -3.961826   1.09852 O.3        1 UNL1     -0.4605
     8 C         -0.263234   -5.189685   1.546946 C.ar        1 UNL1     0.1310
     9 C         -0.813553   -6.429944   1.206057 C.ar        1 UNL1     0.0226
     10 C         -0.27164   -7.622539   1.69997 C.ar        1 UNL1     0.1343
     11 C         0.849515   -7.605009   2.52855 C.ar        1 UNL1     0.1007
     12 C         1.382864   -6.370655   2.908935 C.ar        1 UNL1     0.1389
     13 C         0.836173   -5.171534   2.414295 C.ar        1 UNL1     0.0229
     14 C         1.513569   -8.838007   3.011149 C.2        1 UNL1     0.1740
     15 C         2.829813   -8.638202   3.703341 C.3        1 UNL1     0.0520
     16 C         2.725294   -7.405441   4.59066 C.3        1 UNL1     0.1322
     17 O         2.417371   -6.232795   3.805068 O.3        1 UNL1     -0.4828
     18 C         1.82849   -7.601996   5.815337 C.ar        1 UNL1     -0.0067
     19 C         1.795285   -6.609045   6.815917 C.ar        1 UNL1     -0.0516
     20 C         1.022549   -6.778727   7.970928 C.ar        1 UNL1     -0.0198
     21 C         0.28602   -7.937474   8.140216 C.ar        1 UNL1     0.1169
     22 C         0.272081   -8.918583   7.157328 C.ar        1 UNL1     -0.0198
     23 C         1.030219   -8.740987   5.993824 C.ar        1 UNL1     -0.0516
     24 O         -0.424647   -8.084147   9.295136 O.3        1 UNL1     -0.5068
     25 O         1.077955   -9.967019   2.801253 O.2        1 UNL1     -0.2917
     26 O         -0.855946   -8.798764   1.330288 O.3        1 UNL1     -0.5058
     27 O         1.514088   -1.862622   0.887756 O.3        1 UNL1     -0.3648
     28 O         -0.075039   -0.411445   -2.008957 O.3        1 UNL1     -0.3841
     29 O         -2.036803   -1.131954   0.903635 O.3        1 UNL1     -0.3863
     30 O         -1.799397   -2.920953   -2.29687 O.3        1 UNL1     -0.3829
     31 H         1.763176   -1.679256   -1.082604 H        1 UNL1     0.0937
     32 H         0.0   0.0   0.0 H        1 UNL1     0.0671
     33 H         -2.269607   -0.78264   -1.07311 H        1 UNL1     0.0649
     34 H         -2.747136   -3.217095   -0.500756 H        1 UNL1     0.0683
     35 H         -0.826882   -4.706079   -0.832117 H        1 UNL1     0.1085
     36 H         -1.650631   -6.513621   0.521645 H        1 UNL1     0.0691
     37 H         1.269078   -4.223562   2.726441 H        1 UNL1     0.0691
     38 H         3.593761   -8.504571   2.930001 H        1 UNL1     0.0385
     39 H         3.075459   -9.539919   4.274606 H        1 UNL1     0.0385
     40 H         3.728455   -7.210471   4.993368 H        1 UNL1     0.0789
     41 H         2.371729   -5.694531   6.71091 H        1 UNL1     0.0623
     42 H         1.014589   -6.011036   8.740732 H        1 UNL1     0.0654
     43 H         -0.312957   -9.823176   7.272879 H        1 UNL1     0.0654
     44 H         0.987579   -9.523139   5.241983 H        1 UNL1     0.0623
     45 H         -1.323837   -7.749335   9.146554 H        1 UNL1     0.2921
     46 H         -0.168593   -9.439659   1.089017 H        1 UNL1     0.2922
     47 H         2.055717   -1.065518   0.972153 H        1 UNL1     0.2126
     48 H         -0.835144   0.183473   -2.157433 H        1 UNL1     0.2101
     49 H         -1.927716   -1.933581   1.439629 H        1 UNL1     0.2100
     50 H         -2.28602   -2.141184   -2.635796 H        1 UNL1     0.2102
@<TRIPOS>BOND
     1     1     2    1
     2     1     6    1
     3     2     3    1
     4     3     4    1
     5     3    29    1
     6     3    33    1
     7     4     5    1
     8     5     6    1
     9     5     7    1
    10     5    35    1
    11     7     8    1
    12     8     9   ar
    13     8    13   ar
    14     9    10   ar
    15     9    36    1
    16    10    11   ar
    17    10    26    1
    18    11    12   ar
    19    11    14    1
    20    12    13   ar
    21    12    17    1
    22    13    37    1
    23    14    15    1
    24    14    25    2
    25    15    16    1
    26    15    38    1
    27    15    39    1
    28    16    17    1
    29    16    18    1
    30    16    40    1
    31    18    19   ar
    32    18    23   ar
    33    19    20   ar
    34    19    41    1
    35    20    21   ar
    36    20    42    1
    37    21    22   ar
    38    21    24    1
    39    22    23   ar
    40    22    43    1
    41    23    44    1
    42    24    45    1
    43    26    46    1
    44    27    47    1
    45    28    48    1
    46    29    49    1
    47    30    50    1
    48     1    31    1
    49     1    27    1
    50     2    32    1
    51     2    28    1
    52     4    34    1
    53     4    30    1
