@<TRIPOS>MOLECULE
*****
 50 53 0 0 0
SMALL
GASTEIGER

@<TRIPOS>ATOM
     1 C         -0.370517   -1.397849   1.63693 C.3        1 UNL1     0.1889
     2 C         -0.487719   -0.971354   0.148876 C.3        1 UNL1     0.1342
     3 C         -1.926264   -0.896907   -0.385458 C.3        1 UNL1     0.1174
     4 C         -2.841132   -1.962959   0.222545 C.3        1 UNL1     0.1456
     5 C         -2.694511   -2.064084   1.751806 C.3        1 UNL1     0.2326
     6 O         -1.336606   -2.333217   2.09317 O.3        1 UNL1     -0.3076
     7 O         -3.241834   -0.934579   2.456063 O.3        1 UNL1     -0.4605
     8 C         -3.770902   -1.198295   3.70669 C.ar        1 UNL1     0.1310
     9 C         -4.614261   -2.269593   4.020323 C.ar        1 UNL1     0.0226
     10 C         -5.085574   -2.461907   5.324463 C.ar        1 UNL1     0.1343
     11 C         -4.705377   -1.600343   6.352567 C.ar        1 UNL1     0.1007
     12 C         -3.896711   -0.503387   6.043487 C.ar        1 UNL1     0.1389
     13 C         -3.425081   -0.308726   4.731578 C.ar        1 UNL1     0.0229
     14 C         -5.105781   -1.804707   7.763973 C.2        1 UNL1     0.1740
     15 C         -4.42803   -0.917129   8.766174 C.3        1 UNL1     0.0520
     16 C         -4.321815   0.482389   8.176239 C.3        1 UNL1     0.1322
     17 O         -3.550229   0.466874   6.954975 O.3        1 UNL1     -0.4828
     18 C         -5.664439   1.20945   8.069143 C.ar        1 UNL1     -0.0067
     19 C         -5.686963   2.572971   7.710651 C.ar        1 UNL1     -0.0516
     20 C         -6.89385   3.279852   7.649781 C.ar        1 UNL1     -0.0198
     21 C         -8.081563   2.637915   7.951581 C.ar        1 UNL1     0.1169
     22 C         -8.095107   1.287425   8.275358 C.ar        1 UNL1     -0.0198
     23 C         -6.890264   0.575692   8.318337 C.ar        1 UNL1     -0.0516
     24 O         -9.233088   3.368184   7.918459 O.3        1 UNL1     -0.5068
     25 O         -5.87798   -2.688299   8.126543 O.2        1 UNL1     -0.2917
     26 O         -5.905919   -3.525514   5.563963 O.3        1 UNL1     -0.5058
     27 O         -0.23857   -0.303416   2.530011 O.3        1 UNL1     -0.3648
     28 O         0.219753   -1.931275   -0.657809 O.3        1 UNL1     -0.3841
     29 O         -2.450227   0.425529   -0.248507 O.3        1 UNL1     -0.3863
     30 O         -2.525413   -3.246264   -0.359812 O.3        1 UNL1     -0.3829
     31 H         0.576417   -1.940174   1.733262 H        1 UNL1     0.0937
     32 H         0.0   0.0   0.0 H        1 UNL1     0.0671
     33 H         -1.892369   -1.08672   -1.467374 H        1 UNL1     0.0649
     34 H         -3.88564   -1.745933   -0.02706 H        1 UNL1     0.0683
     35 H         -3.272754   -2.958828   2.014387 H        1 UNL1     0.1085
     36 H         -4.900903   -3.006031   3.277614 H        1 UNL1     0.0691
     37 H         -2.797719   0.553674   4.516693 H        1 UNL1     0.0691
     38 H         -3.436717   -1.338345   8.964677 H        1 UNL1     0.0385
     39 H         -4.998675   -0.930177   9.701039 H        1 UNL1     0.0385
     40 H         -3.72108   1.082613   8.872923 H        1 UNL1     0.0789
     41 H         -4.767291   3.101891   7.478065 H        1 UNL1     0.0623
     42 H         -6.8969   4.333975   7.383646 H        1 UNL1     0.0654
     43 H         -9.021096   0.771177   8.498836 H        1 UNL1     0.0654
     44 H         -6.939119   -0.48062   8.564638 H        1 UNL1     0.0623
     45 H         -9.189899   4.04081   8.617334 H        1 UNL1     0.2921
     46 H         -5.634211   -3.965184   6.385106 H        1 UNL1     0.2922
     47 H         0.506509   0.254985   2.267511 H        1 UNL1     0.2126
     48 H         1.171909   -1.779235   -0.502841 H        1 UNL1     0.2101
     49 H         -2.134661   0.982692   -0.977741 H        1 UNL1     0.2100
     50 H         -2.782541   -3.220021   -1.304751 H        1 UNL1     0.2102
@<TRIPOS>BOND
     1     1     2    1
     2     1     6    1
     3     2     3    1
     4     3     4    1
     5     3    29    1
     6     3    33    1
     7     4     5    1
     8     5     6    1
     9     5     7    1
    10     5    35    1
    11     7     8    1
    12     8     9   ar
    13     8    13   ar
    14     9    10   ar
    15     9    36    1
    16    10    11   ar
    17    10    26    1
    18    11    12   ar
    19    11    14    1
    20    12    13   ar
    21    12    17    1
    22    13    37    1
    23    14    15    1
    24    14    25    2
    25    15    16    1
    26    15    38    1
    27    15    39    1
    28    16    17    1
    29    16    18    1
    30    16    40    1
    31    18    19   ar
    32    18    23   ar
    33    19    20   ar
    34    19    41    1
    35    20    21   ar
    36    20    42    1
    37    21    22   ar
    38    21    24    1
    39    22    23   ar
    40    22    43    1
    41    23    44    1
    42    24    45    1
    43    26    46    1
    44    27    47    1
    45    28    48    1
    46    29    49    1
    47    30    50    1
    48     1    31    1
    49     1    27    1
    50     2    32    1
    51     2    28    1
    52     4    34    1
    53     4    30    1
