@<TRIPOS>MOLECULE
*****
 50 53 0 0 0
SMALL
GASTEIGER

@<TRIPOS>ATOM
     1 C         1.425725   -1.518799   -0.656781 C.3        1 UNL1     0.1889
     2 C         0.533794   -0.857502   0.428154 C.3        1 UNL1     0.1342
     3 C         1.287245   -0.401078   1.686905 C.3        1 UNL1     0.1174
     4 C         2.448237   -1.329128   2.05288 C.3        1 UNL1     0.1456
     5 C         3.322176   -1.688648   0.837422 C.3        1 UNL1     0.2326
     6 O         2.519935   -2.286913   -0.178136 O.3        1 UNL1     -0.3076
     7 O         4.116   -0.588601   0.356733 O.3        1 UNL1     -0.4605
     8 C         3.565373   0.670602   0.51404 C.ar        1 UNL1     0.1310
     9 C         3.590126   1.691142   -0.442614 C.ar        1 UNL1     0.0226
     10 C         2.987634   2.930278   -0.194726 C.ar        1 UNL1     0.1343
     11 C         2.324462   3.170977   1.007816 C.ar        1 UNL1     0.1007
     12 C         2.328459   2.173927   1.986928 C.ar        1 UNL1     0.1389
     13 C         2.936614   0.929   1.738463 C.ar        1 UNL1     0.0229
     14 C         1.599068   4.431458   1.289144 C.2        1 UNL1     0.1740
     15 C         0.759038   4.433528   2.532484 C.3        1 UNL1     0.0520
     16 C         1.522455   3.706487   3.630922 C.3        1 UNL1     0.1322
     17 O         1.799875   2.34203   3.24574 O.3        1 UNL1     -0.4828
     18 C         2.737464   4.478257   4.151351 C.ar        1 UNL1     -0.0067
     19 C         3.744849   4.874935   3.248004 C.ar        1 UNL1     -0.0516
     20 C         4.891521   5.540404   3.697733 C.ar        1 UNL1     -0.0198
     21 C         5.04572   5.807894   5.046251 C.ar        1 UNL1     0.1169
     22 C         4.055682   5.459551   5.955822 C.ar        1 UNL1     -0.0198
     23 C         2.900442   4.810504   5.503921 C.ar        1 UNL1     -0.0516
     24 O         6.193032   6.423854   5.452045 O.3        1 UNL1     -0.5068
     25 O         1.60292   5.397493   0.530694 O.2        1 UNL1     -0.2917
     26 O         3.04817   3.883734   -1.168811 O.3        1 UNL1     -0.5058
     27 O         1.823116   -0.624609   -1.684056 O.3        1 UNL1     -0.3648
     28 O         -0.459556   -1.812142   0.846035 O.3        1 UNL1     -0.3841
     29 O         1.686931   0.966004   1.570842 O.3        1 UNL1     -0.3863
     30 O         1.920016   -2.547184   2.621221 O.3        1 UNL1     -0.3829
     31 H         0.79937   -2.257085   -1.169317 H        1 UNL1     0.0937
     32 H         0.0   0.0   0.0 H        1 UNL1     0.0671
     33 H         0.581226   -0.428189   2.528643 H        1 UNL1     0.0649
     34 H         3.072961   -0.861232   2.821773 H        1 UNL1     0.0683
     35 H         3.992895   -2.470214   1.215799 H        1 UNL1     0.1085
     36 H         4.041022   1.547225   -1.418371 H        1 UNL1     0.0691
     37 H         2.926891   0.169791   2.517564 H        1 UNL1     0.0691
     38 H         -0.180124   3.920935   2.298501 H        1 UNL1     0.0385
     39 H         0.525143   5.468085   2.805913 H        1 UNL1     0.0385
     40 H         0.84507   3.616672   4.490924 H        1 UNL1     0.0789
     41 H         3.651705   4.668507   2.185759 H        1 UNL1     0.0623
     42 H         5.666747   5.830562   2.992862 H        1 UNL1     0.0654
     43 H         4.159363   5.677645   7.01204 H        1 UNL1     0.0654
     44 H         2.142612   4.56237   6.240785 H        1 UNL1     0.0623
     45 H         6.547739   5.93955   6.215162 H        1 UNL1     0.2921
     46 H         3.30867   3.472621   -2.008178 H        1 UNL1     0.2922
     47 H         1.046501   -0.277642   -2.144862 H        1 UNL1     0.2126
     48 H         -0.640096   -2.383609   0.074955 H        1 UNL1     0.2101
     49 H         0.967481   1.5464   1.866349 H        1 UNL1     0.2100
     50 H         2.486819   -3.289001   2.324313 H        1 UNL1     0.2102
@<TRIPOS>BOND
     1     1     2    1
     2     1     6    1
     3     2     3    1
     4     3     4    1
     5     3    29    1
     6     3    33    1
     7     4     5    1
     8     5     6    1
     9     5     7    1
    10     5    35    1
    11     7     8    1
    12     8     9   ar
    13     8    13   ar
    14     9    10   ar
    15     9    36    1
    16    10    11   ar
    17    10    26    1
    18    11    12   ar
    19    11    14    1
    20    12    13   ar
    21    12    17    1
    22    13    37    1
    23    14    15    1
    24    14    25    2
    25    15    16    1
    26    15    38    1
    27    15    39    1
    28    16    17    1
    29    16    18    1
    30    16    40    1
    31    18    19   ar
    32    18    23   ar
    33    19    20   ar
    34    19    41    1
    35    20    21   ar
    36    20    42    1
    37    21    22   ar
    38    21    24    1
    39    22    23   ar
    40    22    43    1
    41    23    44    1
    42    24    45    1
    43    26    46    1
    44    27    47    1
    45    28    48    1
    46    29    49    1
    47    30    50    1
    48     1    31    1
    49     1    27    1
    50     2    32    1
    51     2    28    1
    52     4    34    1
    53     4    30    1
