@<TRIPOS>MOLECULE
*****
 50 53 0 0 0
SMALL
GASTEIGER

@<TRIPOS>ATOM
     1 C         1.049628   -1.753455   -0.771026 C.3        1 UNL1     0.1889
     2 C         -0.217515   -0.866809   -0.63631 C.3        1 UNL1     0.1342
     3 C         -1.453829   -1.594502   -0.086349 C.3        1 UNL1     0.1174
     4 C         -1.535058   -3.053676   -0.541685 C.3        1 UNL1     0.1456
     5 C         -0.194006   -3.794674   -0.390476 C.3        1 UNL1     0.2326
     6 O         0.823634   -3.111513   -1.118878 O.3        1 UNL1     -0.3076
     7 O         0.166771   -4.053368   0.978552 O.3        1 UNL1     -0.4605
     8 C         0.900116   -5.204194   1.205122 C.ar        1 UNL1     0.1310
     9 C         0.620679   -6.463111   0.662589 C.ar        1 UNL1     0.0226
     10 C         1.435525   -7.567416   0.939066 C.ar        1 UNL1     0.1343
     11 C         2.564322   -7.434195   1.746476 C.ar        1 UNL1     0.1007
     12 C         2.830456   -6.191275   2.327085 C.ar        1 UNL1     0.1389
     13 C         2.009481   -5.081661   2.051061 C.ar        1 UNL1     0.0229
     14 C         3.506509   -8.547896   2.003591 C.2        1 UNL1     0.1740
     15 C         4.778536   -8.173209   2.705806 C.3        1 UNL1     0.0520
     16 C         4.448353   -7.159079   3.792303 C.3        1 UNL1     0.1322
     17 O         3.851621   -5.973162   3.222582 O.3        1 UNL1     -0.4828
     18 C         3.677774   -7.751602   4.974609 C.ar        1 UNL1     -0.0067
     19 C         2.520982   -7.096988   5.445276 C.ar        1 UNL1     -0.0516
     20 C         1.819867   -7.5859   6.554043 C.ar        1 UNL1     -0.0198
     21 C         2.268533   -8.721795   7.203867 C.ar        1 UNL1     0.1169
     22 C         3.385237   -9.407381   6.743668 C.ar        1 UNL1     -0.0198
     23 C         4.075905   -8.929121   5.623712 C.ar        1 UNL1     -0.0516
     24 O         1.581775   -9.146807   8.303016 O.3        1 UNL1     -0.5068
     25 O         3.320693   -9.695689   1.607955 O.2        1 UNL1     -0.2917
     26 O         1.107461   -8.767768   0.379501 O.3        1 UNL1     -0.5058
     27 O         1.941596   -1.635219   0.325878 O.3        1 UNL1     -0.3648
     28 O         -0.561983   -0.362423   -1.940013 O.3        1 UNL1     -0.3841
     29 O         -1.536161   -1.452315   1.333206 O.3        1 UNL1     -0.3863
     30 O         -1.934566   -3.095521   -1.928888 O.3        1 UNL1     -0.3829
     31 H         1.616332   -1.361846   -1.622829 H        1 UNL1     0.0937
     32 H         0.0   0.0   0.0 H        1 UNL1     0.0671
     33 H         -2.344973   -1.087892   -0.482492 H        1 UNL1     0.0649
     34 H         -2.306364   -3.581479   0.030078 H        1 UNL1     0.0683
     35 H         -0.362086   -4.752251   -0.899076 H        1 UNL1     0.1085
     36 H         -0.20976   -6.619532   -0.017136 H        1 UNL1     0.0691
     37 H         2.237544   -4.125152   2.516433 H        1 UNL1     0.0691
     38 H         5.45558   -7.745355   1.95876 H        1 UNL1     0.0385
     39 H         5.244433   -9.077729   3.111469 H        1 UNL1     0.0385
     40 H         5.402315   -6.811973   4.211819 H        1 UNL1     0.0789
     41 H         2.153664   -6.198412   4.958152 H        1 UNL1     0.0623
     42 H         0.936066   -7.065449   6.91465 H        1 UNL1     0.0654
     43 H         3.736527   -10.306372   7.235929 H        1 UNL1     0.0654
     44 H         4.937988   -9.49575   5.285201 H        1 UNL1     0.0623
     45 H         1.249437   -10.042465   8.129622 H        1 UNL1     0.2921
     46 H         1.85773   -9.098808   -0.139075 H        1 UNL1     0.2922
     47 H         2.194541   -0.710242   0.453532 H        1 UNL1     0.2126
     48 H         0.19535   0.175862   -2.240725 H        1 UNL1     0.2101
     49 H         -1.746544   -0.532755   1.561113 H        1 UNL1     0.2100
     50 H         -2.84841   -2.747876   -1.990085 H        1 UNL1     0.2102
@<TRIPOS>BOND
     1     1     2    1
     2     1     6    1
     3     2     3    1
     4     3     4    1
     5     3    29    1
     6     3    33    1
     7     4     5    1
     8     5     6    1
     9     5     7    1
    10     5    35    1
    11     7     8    1
    12     8     9   ar
    13     8    13   ar
    14     9    10   ar
    15     9    36    1
    16    10    11   ar
    17    10    26    1
    18    11    12   ar
    19    11    14    1
    20    12    13   ar
    21    12    17    1
    22    13    37    1
    23    14    15    1
    24    14    25    2
    25    15    16    1
    26    15    38    1
    27    15    39    1
    28    16    17    1
    29    16    18    1
    30    16    40    1
    31    18    19   ar
    32    18    23   ar
    33    19    20   ar
    34    19    41    1
    35    20    21   ar
    36    20    42    1
    37    21    22   ar
    38    21    24    1
    39    22    23   ar
    40    22    43    1
    41    23    44    1
    42    24    45    1
    43    26    46    1
    44    27    47    1
    45    28    48    1
    46    29    49    1
    47    30    50    1
    48     1    31    1
    49     1    27    1
    50     2    32    1
    51     2    28    1
    52     4    34    1
    53     4    30    1
