@<TRIPOS>MOLECULE
*****
 50 53 0 0 0
SMALL
GASTEIGER

@<TRIPOS>ATOM
     1 C         -2.177857   -0.049585   -0.159008 C.3        1 UNL1     0.1889
     2 C         -0.835167   0.711323   0.008746 C.3        1 UNL1     0.1342
     3 C         -0.742632   1.577252   1.274476 C.3        1 UNL1     0.1174
     4 C         -2.082051   2.210184   1.659793 C.3        1 UNL1     0.1456
     5 C         -3.245305   1.20257   1.616008 C.3        1 UNL1     0.2326
     6 O         -3.335552   0.620488   0.317584 O.3        1 UNL1     -0.3076
     7 O         -3.197644   0.225809   2.671938 O.3        1 UNL1     -0.4605
     8 C         -2.635828   0.648045   3.863411 C.ar        1 UNL1     0.1310
     9 C         -2.116228   1.923958   4.107054 C.ar        1 UNL1     0.0226
     10 C         -1.582347   2.261543   5.356418 C.ar        1 UNL1     0.1343
     11 C         -1.576809   1.33788   6.400763 C.ar        1 UNL1     0.1007
     12 C         -2.055418   0.04774   6.157338 C.ar        1 UNL1     0.1389
     13 C         -2.589761   -0.292268   4.900237 C.ar        1 UNL1     0.0229
     14 C         -1.102025   1.667275   7.764667 C.2        1 UNL1     0.1740
     15 C         -1.374152   0.630678   8.814887 C.3        1 UNL1     0.0520
     16 C         -1.12761   -0.74448   8.209814 C.3        1 UNL1     0.1322
     17 O         -1.99866   -0.971149   7.079786 O.3        1 UNL1     -0.4828
     18 C         0.349344   -1.044234   7.942461 C.ar        1 UNL1     -0.0067
     19 C         1.075205   -1.826207   8.864338 C.ar        1 UNL1     -0.0516
     20 C         2.438911   -2.079557   8.674378 C.ar        1 UNL1     -0.0198
     21 C         3.088459   -1.551675   7.572899 C.ar        1 UNL1     0.1169
     22 C         2.393204   -0.805729   6.630019 C.ar        1 UNL1     -0.0198
     23 C         1.025378   -0.567652   6.8101 C.ar        1 UNL1     -0.0516
     24 O         4.425306   -1.787982   7.440992 O.3        1 UNL1     -0.5068
     25 O         -0.589342   2.743411   8.060592 O.2        1 UNL1     -0.2917
     26 O         -1.090464   3.522476   5.528703 O.3        1 UNL1     -0.5058
     27 O         -2.126684   -1.393135   0.293809 O.3        1 UNL1     -0.3648
     28 O         -0.661953   1.585513   -1.121959 O.3        1 UNL1     -0.3841
     29 O         -0.147578   0.844767   2.347559 O.3        1 UNL1     -0.3863
     30 O         -2.372633   3.294257   0.750927 O.3        1 UNL1     -0.3829
     31 H         -2.356646   -0.134782   -1.236437 H        1 UNL1     0.0937
     32 H         0.0   0.0   0.0 H        1 UNL1     0.0671
     33 H         -0.049055   2.403674   1.065436 H        1 UNL1     0.0649
     34 H         -2.016029   2.642916   2.664176 H        1 UNL1     0.0683
     35 H         -4.139241   1.824608   1.749521 H        1 UNL1     0.1085
     36 H         -2.14243   2.703708   3.353778 H        1 UNL1     0.0691
     37 H         -2.954983   -1.30375   4.735889 H        1 UNL1     0.0691
     38 H         -2.417505   0.742905   9.12849 H        1 UNL1     0.0385
     39 H         -0.733695   0.822106   9.682614 H        1 UNL1     0.0385
     40 H         -1.44475   -1.487276   8.954258 H        1 UNL1     0.0789
     41 H         0.590387   -2.244281   9.741729 H        1 UNL1     0.0623
     42 H         2.990324   -2.674092   9.39859 H        1 UNL1     0.0654
     43 H         2.888724   -0.400209   5.755992 H        1 UNL1     0.0654
     44 H         0.51132   0.010323   6.048172 H        1 UNL1     0.0623
     45 H         4.904662   -0.976387   7.673905 H        1 UNL1     0.2921
     46 H         -1.820743   4.130741   5.72394 H        1 UNL1     0.2922
     47 H         -2.89466   -1.884799   -0.029206 H        1 UNL1     0.2126
     48 H         -1.009523   1.108569   -1.900067 H        1 UNL1     0.2101
     49 H         0.78519   0.666216   2.147915 H        1 UNL1     0.2100
     50 H         -3.320515   3.52233   0.846928 H        1 UNL1     0.2102
@<TRIPOS>BOND
     1     1     2    1
     2     1     6    1
     3     2     3    1
     4     3     4    1
     5     3    29    1
     6     3    33    1
     7     4     5    1
     8     5     6    1
     9     5     7    1
    10     5    35    1
    11     7     8    1
    12     8     9   ar
    13     8    13   ar
    14     9    10   ar
    15     9    36    1
    16    10    11   ar
    17    10    26    1
    18    11    12   ar
    19    11    14    1
    20    12    13   ar
    21    12    17    1
    22    13    37    1
    23    14    15    1
    24    14    25    2
    25    15    16    1
    26    15    38    1
    27    15    39    1
    28    16    17    1
    29    16    18    1
    30    16    40    1
    31    18    19   ar
    32    18    23   ar
    33    19    20   ar
    34    19    41    1
    35    20    21   ar
    36    20    42    1
    37    21    22   ar
    38    21    24    1
    39    22    23   ar
    40    22    43    1
    41    23    44    1
    42    24    45    1
    43    26    46    1
    44    27    47    1
    45    28    48    1
    46    29    49    1
    47    30    50    1
    48     1    31    1
    49     1    27    1
    50     2    32    1
    51     2    28    1
    52     4    34    1
    53     4    30    1
