@<TRIPOS>MOLECULE
*****
 50 53 0 0 0
SMALL
GASTEIGER

@<TRIPOS>ATOM
     1 C         -0.332281   -1.328201   1.701845 C.3        1 UNL1     0.1889
     2 C         -0.462562   -0.975345   0.195704 C.3        1 UNL1     0.1342
     3 C         -1.90334   -0.962706   -0.337647 C.3        1 UNL1     0.1174
     4 C         -2.789806   -2.021852   0.322282 C.3        1 UNL1     0.1456
     5 C         -2.638352   -2.047116   1.854205 C.3        1 UNL1     0.2326
     6 O         -1.273512   -2.265295   2.204173 O.3        1 UNL1     -0.3076
     7 O         -3.213243   -0.89998   2.506048 O.3        1 UNL1     -0.4605
     8 C         -3.72345   -1.115407   3.773647 C.ar        1 UNL1     0.1310
     9 C         -4.540138   -2.188252   4.146912 C.ar        1 UNL1     0.0226
     10 C         -4.993594   -2.328624   5.463944 C.ar        1 UNL1     0.1343
     11 C         -4.621448   -1.411601   6.445991 C.ar        1 UNL1     0.1007
     12 C         -3.839951   -0.31365   6.076462 C.ar        1 UNL1     0.1389
     13 C         -3.386309   -0.171294   4.751556 C.ar        1 UNL1     0.0229
     14 C         -5.00264   -1.557441   7.869921 C.2        1 UNL1     0.1740
     15 C         -4.333856   -0.609382   8.821477 C.3        1 UNL1     0.0520
     16 C         -4.264073   0.762623   8.165207 C.3        1 UNL1     0.1322
     17 O         -3.505073   0.705701   6.937303 O.3        1 UNL1     -0.4828
     18 C         -5.623147   1.455303   8.039361 C.ar        1 UNL1     -0.0067
     19 C         -6.000915   2.0199   6.80375 C.ar        1 UNL1     -0.0516
     20 C         -7.216001   2.701695   6.667061 C.ar        1 UNL1     -0.0198
     21 C         -8.056829   2.831815   7.757889 C.ar        1 UNL1     0.1169
     22 C         -7.727831   2.257854   8.979023 C.ar        1 UNL1     -0.0198
     23 C         -6.521284   1.560116   9.111162 C.ar        1 UNL1     -0.0516
     24 O         -9.214317   3.535115   7.596669 O.3        1 UNL1     -0.5068
     25 O         -5.751738   -2.439017   8.282427 O.2        1 UNL1     -0.2917
     26 O         -5.788211   -3.396805   5.762539 O.3        1 UNL1     -0.5058
     27 O         -0.226945   -0.189941   2.542115 O.3        1 UNL1     -0.3648
     28 O         0.267946   -1.953893   -0.566861 O.3        1 UNL1     -0.3841
     29 O         -2.460654   0.350973   -0.261616 O.3        1 UNL1     -0.3863
     30 O         -2.442337   -3.322713   -0.199939 O.3        1 UNL1     -0.3829
     31 H         0.62832   -1.841157   1.82101 H        1 UNL1     0.0937
     32 H         0.0   0.0   0.0 H        1 UNL1     0.0671
     33 H         -1.866244   -1.202317   -1.409529 H        1 UNL1     0.0649
     34 H         -3.839884   -1.843422   0.065573 H        1 UNL1     0.0683
     35 H         -3.193191   -2.942908   2.16013 H        1 UNL1     0.1085
     36 H         -4.818495   -2.964854   3.442974 H        1 UNL1     0.0691
     37 H         -2.780012   0.693039   4.489211 H        1 UNL1     0.0691
     38 H         -3.331656   -0.999724   9.028248 H        1 UNL1     0.0385
     39 H         -4.894334   -0.590278   9.76237 H        1 UNL1     0.0385
     40 H         -3.669246   1.407649   8.825996 H        1 UNL1     0.0789
     41 H         -5.35425   1.939356   5.934849 H        1 UNL1     0.0623
     42 H         -7.490591   3.142942   5.71212 H        1 UNL1     0.0654
     43 H         -8.385886   2.340794   9.835758 H        1 UNL1     0.0654
     44 H         -6.301138   1.115377   10.076868 H        1 UNL1     0.0623
     45 H         -8.987963   4.443016   7.337448 H        1 UNL1     0.2921
     46 H         -5.384679   -3.909473   6.480693 H        1 UNL1     0.2922
     47 H         0.516116   0.363708   2.264279 H        1 UNL1     0.2126
     48 H         1.200844   -1.888143   -0.285595 H        1 UNL1     0.2101
     49 H         -2.021668   0.933259   -0.901949 H        1 UNL1     0.2100
     50 H         -2.675498   -3.337795   -1.151318 H        1 UNL1     0.2102
@<TRIPOS>BOND
     1     1     2    1
     2     1     6    1
     3     2     3    1
     4     3     4    1
     5     3    29    1
     6     3    33    1
     7     4     5    1
     8     5     6    1
     9     5     7    1
    10     5    35    1
    11     7     8    1
    12     8     9   ar
    13     8    13   ar
    14     9    10   ar
    15     9    36    1
    16    10    11   ar
    17    10    26    1
    18    11    12   ar
    19    11    14    1
    20    12    13   ar
    21    12    17    1
    22    13    37    1
    23    14    15    1
    24    14    25    2
    25    15    16    1
    26    15    38    1
    27    15    39    1
    28    16    17    1
    29    16    18    1
    30    16    40    1
    31    18    19   ar
    32    18    23   ar
    33    19    20   ar
    34    19    41    1
    35    20    21   ar
    36    20    42    1
    37    21    22   ar
    38    21    24    1
    39    22    23   ar
    40    22    43    1
    41    23    44    1
    42    24    45    1
    43    26    46    1
    44    27    47    1
    45    28    48    1
    46    29    49    1
    47    30    50    1
    48     1    31    1
    49     1    27    1
    50     2    32    1
    51     2    28    1
    52     4    34    1
    53     4    30    1
