@<TRIPOS>MOLECULE
*****
 50 53 0 0 0
SMALL
GASTEIGER

@<TRIPOS>ATOM
     1 C         -0.328224   -1.368848   1.670129 C.3        1 UNL1     0.1889
     2 C         -0.461039   -0.980343   0.17301 C.3        1 UNL1     0.1342
     3 C         -1.902567   -0.956884   -0.357943 C.3        1 UNL1     0.1174
     4 C         -2.78676   -2.032634   0.277733 C.3        1 UNL1     0.1456
     5 C         -2.633157   -2.094227   1.808412 C.3        1 UNL1     0.2326
     6 O         -1.267556   -2.318894   2.151234 O.3        1 UNL1     -0.3076
     7 O         -3.20862   -0.963721   2.488206 O.3        1 UNL1     -0.4605
     8 C         -3.726881   -1.212372   3.746421 C.ar        1 UNL1     0.1310
     9 C         -4.548786   -2.29262   4.085301 C.ar        1 UNL1     0.0226
     10 C         -5.010376   -2.467773   5.395323 C.ar        1 UNL1     0.1343
     11 C         -4.641414   -1.579201   6.404356 C.ar        1 UNL1     0.1007
     12 C         -3.854651   -0.473855   6.069697 C.ar        1 UNL1     0.1389
     13 C         -3.392824   -0.296503   4.75186 C.ar        1 UNL1     0.0229
     14 C         -5.031386   -1.762975   7.821502 C.2        1 UNL1     0.1740
     15 C         -4.365526   -0.843428   8.802631 C.3        1 UNL1     0.0520
     16 C         -4.287998   0.545878   8.184751 C.3        1 UNL1     0.1322
     17 O         -3.521955   0.520448   6.960169 O.3        1 UNL1     -0.4828
     18 C         -5.644341   1.24582   8.070118 C.ar        1 UNL1     -0.0067
     19 C         -5.719177   2.515529   7.46147 C.ar        1 UNL1     -0.0516
     20 C         -6.935739   3.203825   7.382812 C.ar        1 UNL1     -0.0198
     21 C         -8.080598   2.637661   7.914396 C.ar        1 UNL1     0.1169
     22 C         -8.045144   1.374277   8.490106 C.ar        1 UNL1     -0.0198
     23 C         -6.832256   0.677802   8.55241 C.ar        1 UNL1     -0.0516
     24 O         -9.239726   3.353944   7.853057 O.3        1 UNL1     -0.5068
     25 O         -5.785391   -2.653306   8.20526 O.2        1 UNL1     -0.2917
     26 O         -5.809758   -3.541373   5.659818 O.3        1 UNL1     -0.5058
     27 O         -0.223189   -0.250813   2.537166 O.3        1 UNL1     -0.3648
     28 O         0.269671   -1.939464   -0.613664 O.3        1 UNL1     -0.3841
     29 O         -2.461462   0.353873   -0.249847 O.3        1 UNL1     -0.3863
     30 O         -2.438343   -3.320212   -0.275835 O.3        1 UNL1     -0.3829
     31 H         0.633199   -1.883235   1.775728 H        1 UNL1     0.0937
     32 H         0.0   0.0   0.0 H        1 UNL1     0.0671
     33 H         -1.866644   -1.170814   -1.435284 H        1 UNL1     0.0649
     34 H         -3.83742   -1.849515   0.026771 H        1 UNL1     0.0683
     35 H         -3.186423   -2.99779   2.093634 H        1 UNL1     0.1085
     36 H         -4.825197   -3.048747   3.358673 H        1 UNL1     0.0691
     37 H         -2.782548   0.572894   4.516902 H        1 UNL1     0.0691
     38 H         -3.365669   -1.242303   9.004401 H        1 UNL1     0.0385
     39 H         -4.931471   -0.84851   9.740426 H        1 UNL1     0.0385
     40 H         -3.695243   1.170718   8.866466 H        1 UNL1     0.0789
     41 H         -4.833007   2.985398   7.044844 H        1 UNL1     0.0623
     42 H         -6.978247   4.187459   6.92165 H        1 UNL1     0.0654
     43 H         -8.938638   0.915133   8.896019 H        1 UNL1     0.0654
     44 H         -6.843271   -0.311513   8.9996 H        1 UNL1     0.0623
     45 H         -9.123701   4.169695   8.366677 H        1 UNL1     0.2921
     46 H         -5.4239   -4.061895   6.382025 H        1 UNL1     0.2922
     47 H         0.505883   0.321088   2.259239 H        1 UNL1     0.2126
     48 H         1.213978   -1.818338   -0.396072 H        1 UNL1     0.2101
     49 H         -2.0302   0.949755   -0.882881 H        1 UNL1     0.2100
     50 H         -2.678013   -3.314871   -1.225699 H        1 UNL1     0.2102
@<TRIPOS>BOND
     1     1     2    1
     2     1     6    1
     3     2     3    1
     4     3     4    1
     5     3    29    1
     6     3    33    1
     7     4     5    1
     8     5     6    1
     9     5     7    1
    10     5    35    1
    11     7     8    1
    12     8     9   ar
    13     8    13   ar
    14     9    10   ar
    15     9    36    1
    16    10    11   ar
    17    10    26    1
    18    11    12   ar
    19    11    14    1
    20    12    13   ar
    21    12    17    1
    22    13    37    1
    23    14    15    1
    24    14    25    2
    25    15    16    1
    26    15    38    1
    27    15    39    1
    28    16    17    1
    29    16    18    1
    30    16    40    1
    31    18    19   ar
    32    18    23   ar
    33    19    20   ar
    34    19    41    1
    35    20    21   ar
    36    20    42    1
    37    21    22   ar
    38    21    24    1
    39    22    23   ar
    40    22    43    1
    41    23    44    1
    42    24    45    1
    43    26    46    1
    44    27    47    1
    45    28    48    1
    46    29    49    1
    47    30    50    1
    48     1    31    1
    49     1    27    1
    50     2    32    1
    51     2    28    1
    52     4    34    1
    53     4    30    1
