@<TRIPOS>MOLECULE
*****
 50 53 0 0 0
SMALL
GASTEIGER

@<TRIPOS>ATOM
     1 C         0.923978   -1.678607   -1.048498 C.3        1 UNL1     0.1889
     2 C         -0.307553   -0.812719   -0.669673 C.3        1 UNL1     0.1342
     3 C         -1.461581   -1.589648   -0.017702 C.3        1 UNL1     0.1174
     4 C         -1.612988   -3.006874   -0.57597 C.3        1 UNL1     0.1456
     5 C         -0.268334   -3.750718   -0.670653 C.3        1 UNL1     0.2326
     6 O         0.644444   -3.004656   -1.472586 O.3        1 UNL1     -0.3076
     7 O         0.274381   -4.11914   0.610381 O.3        1 UNL1     -0.4605
     8 C         1.014981   -5.287067   0.641793 C.ar        1 UNL1     0.1310
     9 C         0.530024   -6.562654   0.33358 C.ar        1 UNL1     0.0226
     10 C         1.36569   -7.684955   0.378346 C.ar        1 UNL1     0.1343
     11 C         2.713755   -7.555352   0.709654 C.ar        1 UNL1     0.1007
     12 C         3.199869   -6.292715   1.059262 C.ar        1 UNL1     0.1389
     13 C         2.358777   -5.164803   1.016738 C.ar        1 UNL1     0.0229
     14 C         3.660702   -8.694253   0.691016 C.2        1 UNL1     0.1740
     15 C         5.108925   -8.337248   0.854565 C.3        1 UNL1     0.0520
     16 C         5.219474   -7.243   1.90735 C.3        1 UNL1     0.1322
     17 O         4.481679   -6.067904   1.50501 O.3        1 UNL1     -0.4828
     18 C         4.920523   -7.72368   3.329426 C.ar        1 UNL1     -0.0067
     19 C         4.911104   -6.791984   4.387758 C.ar        1 UNL1     -0.0516
     20 C         4.688169   -7.205276   5.706641 C.ar        1 UNL1     -0.0198
     21 C         4.481158   -8.545402   5.980568 C.ar        1 UNL1     0.1169
     22 C         4.451393   -9.482126   4.955629 C.ar        1 UNL1     -0.0198
     23 C         4.655958   -9.066573   3.634445 C.ar        1 UNL1     -0.0516
     24 O         4.305144   -8.915595   7.281482 O.3        1 UNL1     -0.5068
     25 O         3.318843   -9.85435   0.477022 O.2        1 UNL1     -0.2917
     26 O         0.830511   -8.900913   0.067518 O.3        1 UNL1     -0.5058
     27 O         1.958025   -1.646218   -0.077682 O.3        1 UNL1     -0.3648
     28 O         -0.823715   -0.20472   -1.868264 O.3        1 UNL1     -0.3841
     29 O         -1.348508   -1.565038   1.406637 O.3        1 UNL1     -0.3863
     30 O         -2.198361   -2.93668   -1.894341 O.3        1 UNL1     -0.3829
     31 H         1.37145   -1.215341   -1.934631 H        1 UNL1     0.0937
     32 H         0.0   0.0   0.0 H        1 UNL1     0.0671
     33 H         -2.395392   -1.056898   -0.245503 H        1 UNL1     0.0649
     34 H         -2.302189   -3.583935   0.050451 H        1 UNL1     0.0683
     35 H         -0.510028   -4.66413   -1.228451 H        1 UNL1     0.1085
     36 H         -0.494238   -6.721567   0.014588 H        1 UNL1     0.0691
     37 H         2.761288   -4.193067   1.294602 H        1 UNL1     0.0691
     38 H         5.475977   -7.989228   -0.116867 H        1 UNL1     0.0385
     39 H         5.671142   -9.23582   1.130715 H        1 UNL1     0.0385
     40 H         6.267937   -6.91602   1.925519 H        1 UNL1     0.0789
     41 H         5.080132   -5.735659   4.199988 H        1 UNL1     0.0623
     42 H         4.695134   -6.478847   6.515507 H        1 UNL1     0.0654
     43 H         4.275202   -10.532   5.157202 H        1 UNL1     0.0654
     44 H         4.615523   -9.823894   2.85748 H        1 UNL1     0.0623
     45 H         4.401429   -8.127478   7.840335 H        1 UNL1     0.2921
     46 H         1.435986   -9.380256   -0.519885 H        1 UNL1     0.2922
     47 H         1.725935   -1.038756   0.638547 H        1 UNL1     0.2126
     48 H         -1.240755   -0.919299   -2.387097 H        1 UNL1     0.2101
     49 H         -0.936631   -2.386279   1.719229 H        1 UNL1     0.2100
     50 H         -1.834091   -2.146382   -2.344285 H        1 UNL1     0.2102
@<TRIPOS>BOND
     1     1     2    1
     2     1     6    1
     3     2     3    1
     4     3     4    1
     5     3    29    1
     6     3    33    1
     7     4     5    1
     8     5     6    1
     9     5     7    1
    10     5    35    1
    11     7     8    1
    12     8     9   ar
    13     8    13   ar
    14     9    10   ar
    15     9    36    1
    16    10    11   ar
    17    10    26    1
    18    11    12   ar
    19    11    14    1
    20    12    13   ar
    21    12    17    1
    22    13    37    1
    23    14    15    1
    24    14    25    2
    25    15    16    1
    26    15    38    1
    27    15    39    1
    28    16    17    1
    29    16    18    1
    30    16    40    1
    31    18    19   ar
    32    18    23   ar
    33    19    20   ar
    34    19    41    1
    35    20    21   ar
    36    20    42    1
    37    21    22   ar
    38    21    24    1
    39    22    23   ar
    40    22    43    1
    41    23    44    1
    42    24    45    1
    43    26    46    1
    44    27    47    1
    45    28    48    1
    46    29    49    1
    47    30    50    1
    48     1    31    1
    49     1    27    1
    50     2    32    1
    51     2    28    1
    52     4    34    1
    53     4    30    1
