@<TRIPOS>MOLECULE
*****
 50 53 0 0 0
SMALL
GASTEIGER

@<TRIPOS>ATOM
     1 C         -0.581263   1.09088   1.80081 C.3        1 UNL1     0.1889
     2 C         0.266439   0.019187   1.064051 C.3        1 UNL1     0.1342
     3 C         0.143386   -1.400993   1.637123 C.3        1 UNL1     0.1174
     4 C         -0.028813   -1.414397   3.158071 C.3        1 UNL1     0.1456
     5 C         -1.079908   -0.398845   3.64203 C.3        1 UNL1     0.2326
     6 O         -0.729073   0.911042   3.201598 O.3        1 UNL1     -0.3076
     7 O         -2.429932   -0.766504   3.305007 O.3        1 UNL1     -0.4605
     8 C         -3.415606   -0.300719   4.156487 C.ar        1 UNL1     0.1310
     9 C         -3.548056   1.020586   4.596842 C.ar        1 UNL1     0.0226
     10 C         -4.593561   1.398521   5.447716 C.ar        1 UNL1     0.1343
     11 C         -5.54669   0.468331   5.860187 C.ar        1 UNL1     0.1007
     12 C         -5.401541   -0.862718   5.460161 C.ar        1 UNL1     0.1389
     13 C         -4.348694   -1.243021   4.606747 C.ar        1 UNL1     0.0229
     14 C         -6.718706   0.830408   6.690508 C.2        1 UNL1     0.1740
     15 C         -7.755689   -0.241933   6.852684 C.3        1 UNL1     0.0520
     16 C         -7.044842   -1.575322   7.039038 C.3        1 UNL1     0.1322
     17 O         -6.218971   -1.880617   5.893699 O.3        1 UNL1     -0.4828
     18 C         -6.334302   -1.711566   8.38785 C.ar        1 UNL1     -0.0067
     19 C         -4.966227   -1.384554   8.486068 C.ar        1 UNL1     -0.0516
     20 C         -4.27471   -1.542766   9.693022 C.ar        1 UNL1     -0.0198
     21 C         -4.936674   -2.032919   10.804499 C.ar        1 UNL1     0.1169
     22 C         -6.291707   -2.332121   10.747903 C.ar        1 UNL1     -0.0198
     23 C         -6.987846   -2.156556   9.545978 C.ar        1 UNL1     -0.0516
     24 O         -4.221432   -2.20937   11.952408 O.3        1 UNL1     -0.5068
     25 O         -6.894294   1.951734   7.159849 O.2        1 UNL1     -0.2917
     26 O         -4.665653   2.702814   5.841681 O.3        1 UNL1     -0.5058
     27 O         -1.825188   1.357572   1.172868 O.3        1 UNL1     -0.3648
     28 O         1.653111   0.396814   1.149169 O.3        1 UNL1     -0.3841
     29 O         -0.877467   -2.135084   0.958078 O.3        1 UNL1     -0.3863
     30 O         1.236867   -1.104785   3.780875 O.3        1 UNL1     -0.3829
     31 H         -0.030836   2.034626   1.720485 H        1 UNL1     0.0937
     32 H         0.0   -0.0   0.0 H        1 UNL1     0.0671
     33 H         1.079788   -1.933086   1.418607 H        1 UNL1     0.0649
     34 H         -0.314097   -2.417704   3.493317 H        1 UNL1     0.0683
     35 H         -0.972963   -0.407508   4.733985 H        1 UNL1     0.1085
     36 H         -2.872208   1.801996   4.267074 H        1 UNL1     0.0691
     37 H         -4.25715   -2.28582   4.310633 H        1 UNL1     0.0691
     38 H         -8.372145   -0.246128   5.947426 H        1 UNL1     0.0385
     39 H         -8.399133   0.006719   7.703525 H        1 UNL1     0.0385
     40 H         -7.816783   -2.356746   7.037004 H        1 UNL1     0.0789
     41 H         -4.421821   -1.006627   7.625578 H        1 UNL1     0.0623
     42 H         -3.217032   -1.298345   9.752915 H        1 UNL1     0.0654
     43 H         -6.823397   -2.702365   11.616313 H        1 UNL1     0.0654
     44 H         -8.048122   -2.390288   9.540593 H        1 UNL1     0.0623
     45 H         -3.376438   -2.630396   11.725605 H        1 UNL1     0.2921
     46 H         -3.828379   3.148942   5.638327 H        1 UNL1     0.2922
     47 H         -1.691263   1.556792   0.235725 H        1 UNL1     0.2126
     48 H         1.77222   1.160341   0.552033 H        1 UNL1     0.2101
     49 H         -0.585281   -3.048954   0.812264 H        1 UNL1     0.2100
     50 H         1.850405   -1.84735   3.602325 H        1 UNL1     0.2102
@<TRIPOS>BOND
     1     1     2    1
     2     1     6    1
     3     2     3    1
     4     3     4    1
     5     3    29    1
     6     3    33    1
     7     4     5    1
     8     5     6    1
     9     5     7    1
    10     5    35    1
    11     7     8    1
    12     8     9   ar
    13     8    13   ar
    14     9    10   ar
    15     9    36    1
    16    10    11   ar
    17    10    26    1
    18    11    12   ar
    19    11    14    1
    20    12    13   ar
    21    12    17    1
    22    13    37    1
    23    14    15    1
    24    14    25    2
    25    15    16    1
    26    15    38    1
    27    15    39    1
    28    16    17    1
    29    16    18    1
    30    16    40    1
    31    18    19   ar
    32    18    23   ar
    33    19    20   ar
    34    19    41    1
    35    20    21   ar
    36    20    42    1
    37    21    22   ar
    38    21    24    1
    39    22    23   ar
    40    22    43    1
    41    23    44    1
    42    24    45    1
    43    26    46    1
    44    27    47    1
    45    28    48    1
    46    29    49    1
    47    30    50    1
    48     1    31    1
    49     1    27    1
    50     2    32    1
    51     2    28    1
    52     4    34    1
    53     4    30    1
