@<TRIPOS>MOLECULE
*****
 50 53 0 0 0
SMALL
GASTEIGER

@<TRIPOS>ATOM
     1 C         0.663038   -1.989819   0.609759 C.3        1 UNL1     0.1889
     2 C         -0.251953   -1.045727   -0.215725 C.3        1 UNL1     0.1342
     3 C         -1.757505   -1.254841   0.007991 C.3        1 UNL1     0.1174
     4 C         -2.123062   -2.720873   0.253415 C.3        1 UNL1     0.1456
     5 C         -1.18955   -3.399296   1.272563 C.3        1 UNL1     0.2326
     6 O         0.163376   -3.300003   0.833702 O.3        1 UNL1     -0.3076
     7 O         -1.382005   -2.937676   2.622077 O.3        1 UNL1     -0.4605
     8 C         -1.15314   -3.868352   3.61957 C.ar        1 UNL1     0.1310
     9 C         -1.620495   -5.187017   3.620232 C.ar        1 UNL1     0.0226
     10 C         -1.320084   -6.060805   4.671969 C.ar        1 UNL1     0.1343
     11 C         -0.524319   -5.643725   5.738104 C.ar        1 UNL1     0.1007
     12 C         -0.085952   -4.317196   5.768754 C.ar        1 UNL1     0.1389
     13 C         -0.390356   -3.438039   4.712415 C.ar        1 UNL1     0.0229
     14 C         -0.106546   -6.549038   6.833562 C.2        1 UNL1     0.1740
     15 C         0.92577   -5.998262   7.772986 C.3        1 UNL1     0.0520
     16 C         0.597995   -4.536731   8.04584 C.3        1 UNL1     0.1322
     17 O         0.611608   -3.770838   6.820975 O.3        1 UNL1     -0.4828
     18 C         -0.652129   -4.335773   8.905799 C.ar        1 UNL1     -0.0067
     19 C         -1.098658   -3.027464   9.183562 C.ar        1 UNL1     -0.0516
     20 C         -2.210417   -2.807226   10.00542 C.ar        1 UNL1     -0.0198
     21 C         -2.878261   -3.884237   10.56027 C.ar        1 UNL1     0.1169
     22 C         -2.482782   -5.185356   10.278267 C.ar        1 UNL1     -0.0198
     23 C         -1.382276   -5.4064   9.441558 C.ar        1 UNL1     -0.0516
     24 O         -3.933516   -3.629749   11.386148 O.3        1 UNL1     -0.5068
     25 O         -0.502368   -7.706636   6.942079 O.2        1 UNL1     -0.2917
     26 O         -1.807467   -7.333803   4.61265 O.3        1 UNL1     -0.5058
     27 O         1.148254   -1.402646   1.806663 O.3        1 UNL1     -0.3648
     28 O         0.008054   -1.266684   -1.614396 O.3        1 UNL1     -0.3841
     29 O         -2.243722   -0.384364   1.031708 O.3        1 UNL1     -0.3863
     30 O         -2.049896   -3.44279   -0.995253 O.3        1 UNL1     -0.3829
     31 H         1.562818   -2.1583   0.008021 H        1 UNL1     0.0937
     32 H         0.0   0.0   0.0 H        1 UNL1     0.0671
     33 H         -2.278799   -0.946545   -0.909029 H        1 UNL1     0.0649
     34 H         -3.15781   -2.794322   0.605981 H        1 UNL1     0.0683
     35 H         -1.465307   -4.459927   1.218714 H        1 UNL1     0.1085
     36 H         -2.196724   -5.588175   2.793702 H        1 UNL1     0.0691
     37 H         -0.03807   -2.409906   4.760682 H        1 UNL1     0.0691
     38 H         1.902602   -6.100124   7.28827 H        1 UNL1     0.0385
     39 H         0.934217   -6.598704   8.689052 H        1 UNL1     0.0385
     40 H         1.426732   -4.12402   8.636928 H        1 UNL1     0.0789
     41 H         -0.58603   -2.165037   8.767529 H        1 UNL1     0.0623
     42 H         -2.537767   -1.793292   10.221733 H        1 UNL1     0.0654
     43 H         -3.007789   -6.03642   10.69536 H        1 UNL1     0.0654
     44 H         -1.107492   -6.436123   9.234175 H        1 UNL1     0.0623
     45 H         -3.608125   -3.136101   12.156309 H        1 UNL1     0.2921
     46 H         -1.075163   -7.964811   4.696141 H        1 UNL1     0.2922
     47 H         1.594408   -0.566525   1.612478 H        1 UNL1     0.2126
     48 H         0.934244   -1.000226   -1.772207 H        1 UNL1     0.2101
     49 H         -2.237786   0.532999   0.715157 H        1 UNL1     0.2100
     50 H         -2.752199   -3.097683   -1.584646 H        1 UNL1     0.2102
@<TRIPOS>BOND
     1     1     2    1
     2     1     6    1
     3     2     3    1
     4     3     4    1
     5     3    29    1
     6     3    33    1
     7     4     5    1
     8     5     6    1
     9     5     7    1
    10     5    35    1
    11     7     8    1
    12     8     9   ar
    13     8    13   ar
    14     9    10   ar
    15     9    36    1
    16    10    11   ar
    17    10    26    1
    18    11    12   ar
    19    11    14    1
    20    12    13   ar
    21    12    17    1
    22    13    37    1
    23    14    15    1
    24    14    25    2
    25    15    16    1
    26    15    38    1
    27    15    39    1
    28    16    17    1
    29    16    18    1
    30    16    40    1
    31    18    19   ar
    32    18    23   ar
    33    19    20   ar
    34    19    41    1
    35    20    21   ar
    36    20    42    1
    37    21    22   ar
    38    21    24    1
    39    22    23   ar
    40    22    43    1
    41    23    44    1
    42    24    45    1
    43    26    46    1
    44    27    47    1
    45    28    48    1
    46    29    49    1
    47    30    50    1
    48     1    31    1
    49     1    27    1
    50     2    32    1
    51     2    28    1
    52     4    34    1
    53     4    30    1
