@<TRIPOS>MOLECULE
*****
 50 53 0 0 0
SMALL
GASTEIGER

@<TRIPOS>ATOM
     1 C         -0.356319   -1.339082   1.688402 C.3        1 UNL1     0.1889
     2 C         -0.475351   -0.971295   0.184905 C.3        1 UNL1     0.1342
     3 C         -1.9134   -0.936242   -0.354773 C.3        1 UNL1     0.1174
     4 C         -2.815777   -1.990248   0.291683 C.3        1 UNL1     0.1456
     5 C         -2.671686   -2.03097   1.823983 C.3        1 UNL1     0.2326
     6 O         -1.31124   -2.268979   2.178109 O.3        1 UNL1     -0.3076
     7 O         -3.235494   -0.882698   2.483463 O.3        1 UNL1     -0.4605
     8 C         -3.753588   -1.102971   3.747024 C.ar        1 UNL1     0.1310
     9 C         -4.584671   -2.1691   4.107538 C.ar        1 UNL1     0.0226
     10 C         -5.045325   -2.315441   5.42142 C.ar        1 UNL1     0.1343
     11 C         -4.666327   -1.411539   6.412965 C.ar        1 UNL1     0.1007
     12 C         -3.870147   -0.319915   6.056262 C.ar        1 UNL1     0.1389
     13 C         -3.409251   -0.171526   4.734526 C.ar        1 UNL1     0.0229
     14 C         -5.055239   -1.565147   7.833988 C.2        1 UNL1     0.1740
     15 C         -4.379127   -0.633522   8.796536 C.3        1 UNL1     0.0520
     16 C         -4.290101   0.743195   8.152577 C.3        1 UNL1     0.1322
     17 O         -3.526675   0.687805   6.927349 O.3        1 UNL1     -0.4828
     18 C         -5.640213   1.453269   8.02721 C.ar        1 UNL1     -0.0067
     19 C         -6.006767   2.031475   6.794518 C.ar        1 UNL1     -0.0516
     20 C         -7.212997   2.728993   6.65872 C.ar        1 UNL1     -0.0198
     21 C         -8.055997   2.861329   7.747603 C.ar        1 UNL1     0.1169
     22 C         -7.738272   2.27446   8.965583 C.ar        1 UNL1     -0.0198
     23 C         -6.540758   1.561137   9.096685 C.ar        1 UNL1     -0.0516
     24 O         -9.204286   3.579828   7.58763 O.3        1 UNL1     -0.5068
     25 O         -5.816605   -2.441184   8.235692 O.2        1 UNL1     -0.2917
     26 O         -5.853968   -3.376524   5.707398 O.3        1 UNL1     -0.5058
     27 O         -0.240933   -0.209705   2.539273 O.3        1 UNL1     -0.3648
     28 O         0.246632   -1.951924   -0.583088 O.3        1 UNL1     -0.3841
     29 O         -2.454949   0.38345   -0.269508 O.3        1 UNL1     -0.3863
     30 O         -2.481848   -3.290587   -0.240576 O.3        1 UNL1     -0.3829
     31 H         0.597378   -1.864825   1.807289 H        1 UNL1     0.0937
     32 H         0.0   0.0   0.0 H        1 UNL1     0.0671
     33 H         -1.874311   -1.166763   -1.428575 H        1 UNL1     0.0649
     34 H         -3.862403   -1.796674   0.031869 H        1 UNL1     0.0683
     35 H         -3.23884   -2.922566   2.1194 H        1 UNL1     0.1085
     36 H         -4.869371   -2.936143   3.395701 H        1 UNL1     0.0691
     37 H         -2.791513   0.687686   4.482239 H        1 UNL1     0.0691
     38 H         -3.382569   -1.037695   9.004001 H        1 UNL1     0.0385
     39 H         -4.943293   -0.615845   9.735249 H        1 UNL1     0.0385
     40 H         -3.690357   1.375238   8.821417 H        1 UNL1     0.0789
     41 H         -5.35809   1.949445   5.927258 H        1 UNL1     0.0623
     42 H         -7.478862   3.180545   5.70613 H        1 UNL1     0.0654
     43 H         -8.398267   2.359114   9.820657 H        1 UNL1     0.0654
     44 H         -6.329413   1.106677   10.059828 H        1 UNL1     0.0623
     45 H         -8.966015   4.486785   7.33589 H        1 UNL1     0.2921
     46 H         -5.459482   -3.900434   6.422458 H        1 UNL1     0.2922
     47 H         0.510217   0.337138   2.269837 H        1 UNL1     0.2126
     48 H         1.178833   -1.900617   -0.296555 H        1 UNL1     0.2101
     49 H         -2.005935   0.965968   -0.902638 H        1 UNL1     0.2100
     50 H         -2.710801   -3.294359   -1.193088 H        1 UNL1     0.2102
@<TRIPOS>BOND
     1     1     2    1
     2     1     6    1
     3     2     3    1
     4     3     4    1
     5     3    29    1
     6     3    33    1
     7     4     5    1
     8     5     6    1
     9     5     7    1
    10     5    35    1
    11     7     8    1
    12     8     9   ar
    13     8    13   ar
    14     9    10   ar
    15     9    36    1
    16    10    11   ar
    17    10    26    1
    18    11    12   ar
    19    11    14    1
    20    12    13   ar
    21    12    17    1
    22    13    37    1
    23    14    15    1
    24    14    25    2
    25    15    16    1
    26    15    38    1
    27    15    39    1
    28    16    17    1
    29    16    18    1
    30    16    40    1
    31    18    19   ar
    32    18    23   ar
    33    19    20   ar
    34    19    41    1
    35    20    21   ar
    36    20    42    1
    37    21    22   ar
    38    21    24    1
    39    22    23   ar
    40    22    43    1
    41    23    44    1
    42    24    45    1
    43    26    46    1
    44    27    47    1
    45    28    48    1
    46    29    49    1
    47    30    50    1
    48     1    31    1
    49     1    27    1
    50     2    32    1
    51     2    28    1
    52     4    34    1
    53     4    30    1
