@<TRIPOS>MOLECULE
*****
 50 53 0 0 0
SMALL
GASTEIGER

@<TRIPOS>ATOM
     1 C         -1.710734   -0.489764   -1.26662 C.3        1 UNL1     0.1889
     2 C         -0.799005   0.530229   -0.532927 C.3        1 UNL1     0.1342
     3 C         -1.532392   1.452662   0.452833 C.3        1 UNL1     0.1174
     4 C         -2.941666   1.822386   -0.016602 C.3        1 UNL1     0.1456
     5 C         -3.736339   0.602174   -0.516545 C.3        1 UNL1     0.2326
     6 O         -3.024249   -0.043396   -1.569652 O.3        1 UNL1     -0.3076
     7 O         -4.127828   -0.297514   0.536365 O.3        1 UNL1     -0.4605
     8 C         -4.697275   -1.491815   0.132754 C.ar        1 UNL1     0.1310
     9 C         -4.485613   -2.735617   0.737283 C.ar        1 UNL1     0.0226
     10 C         -5.123595   -3.888339   0.263876 C.ar        1 UNL1     0.1343
     11 C         -6.008068   -3.821031   -0.811772 C.ar        1 UNL1     0.1007
     12 C         -6.195882   -2.591862   -1.449465 C.ar        1 UNL1     0.1389
     13 C         -5.552238   -1.433431   -0.974923 C.ar        1 UNL1     0.0229
     14 C         -6.773091   -4.991817   -1.299782 C.2        1 UNL1     0.1740
     15 C         -7.839222   -4.69434   -2.312907 C.3        1 UNL1     0.0520
     16 C         -7.305135   -3.647906   -3.281248 C.3        1 UNL1     0.1322
     17 O         -6.959379   -2.431674   -2.582461 O.3        1 UNL1     -0.4828
     18 C         -6.213996   -4.174076   -4.216815 C.ar        1 UNL1     -0.0067
     19 C         -5.236395   -3.285367   -4.709468 C.ar        1 UNL1     -0.0516
     20 C         -4.252801   -3.723614   -5.604144 C.ar        1 UNL1     -0.0198
     21 C         -4.240502   -5.043431   -6.018581 C.ar        1 UNL1     0.1169
     22 C         -5.169608   -5.950124   -5.525118 C.ar        1 UNL1     -0.0198
     23 C         -6.142082   -5.516367   -4.616159 C.ar        1 UNL1     -0.0516
     24 O         -3.290553   -5.425058   -6.919891 O.3        1 UNL1     -0.5068
     25 O         -6.620593   -6.129257   -0.862223 O.2        1 UNL1     -0.2917
     26 O         -4.873507   -5.070676   0.897216 O.3        1 UNL1     -0.5058
     27 O         -1.719937   -1.774641   -0.665129 O.3        1 UNL1     -0.3648
     28 O         -0.169297   1.370212   -1.518118 O.3        1 UNL1     -0.3841
     29 O         -1.514945   0.901985   1.771386 O.3        1 UNL1     -0.3863
     30 O         -2.846476   2.785241   -1.088767 O.3        1 UNL1     -0.3829
     31 H         -1.263221   -0.656742   -2.252485 H        1 UNL1     0.0937
     32 H         0.0   0.0   0.0 H        1 UNL1     0.0671
     33 H         -0.963776   2.390624   0.520825 H        1 UNL1     0.0649
     34 H         -3.493108   2.303843   0.798574 H        1 UNL1     0.0683
     35 H         -4.63871   1.038836   -0.962563 H        1 UNL1     0.1085
     36 H         -3.853428   -2.844414   1.611713 H        1 UNL1     0.0691
     37 H         -5.714308   -0.488833   -1.489668 H        1 UNL1     0.0691
     38 H         -8.715334   -4.321171   -1.771891 H        1 UNL1     0.0385
     39 H         -8.120851   -5.623033   -2.820837 H        1 UNL1     0.0385
     40 H         -8.137158   -3.360104   -3.93808 H        1 UNL1     0.0789
     41 H         -5.230053   -2.242379   -4.406508 H        1 UNL1     0.0623
     42 H         -3.511633   -3.025934   -5.986145 H        1 UNL1     0.0654
     43 H         -5.159879   -6.989358   -5.831401 H        1 UNL1     0.0654
     44 H         -6.845773   -6.25418   -4.242933 H        1 UNL1     0.0623
     45 H         -3.54281   -6.28904   -7.28406 H        1 UNL1     0.2921
     46 H         -4.291766   -4.913599   1.657688 H        1 UNL1     0.2922
     47 H         -2.371962   -2.342674   -1.098791 H        1 UNL1     0.2126
     48 H         -0.310333   2.292748   -1.23042 H        1 UNL1     0.2101
     49 H         -2.359564   1.080427   2.21475 H        1 UNL1     0.2100
     50 H         -2.56426   2.309343   -1.897215 H        1 UNL1     0.2102
@<TRIPOS>BOND
     1     1     2    1
     2     1     6    1
     3     2     3    1
     4     3     4    1
     5     3    29    1
     6     3    33    1
     7     4     5    1
     8     5     6    1
     9     5     7    1
    10     5    35    1
    11     7     8    1
    12     8     9   ar
    13     8    13   ar
    14     9    10   ar
    15     9    36    1
    16    10    11   ar
    17    10    26    1
    18    11    12   ar
    19    11    14    1
    20    12    13   ar
    21    12    17    1
    22    13    37    1
    23    14    15    1
    24    14    25    2
    25    15    16    1
    26    15    38    1
    27    15    39    1
    28    16    17    1
    29    16    18    1
    30    16    40    1
    31    18    19   ar
    32    18    23   ar
    33    19    20   ar
    34    19    41    1
    35    20    21   ar
    36    20    42    1
    37    21    22   ar
    38    21    24    1
    39    22    23   ar
    40    22    43    1
    41    23    44    1
    42    24    45    1
    43    26    46    1
    44    27    47    1
    45    28    48    1
    46    29    49    1
    47    30    50    1
    48     1    31    1
    49     1    27    1
    50     2    32    1
    51     2    28    1
    52     4    34    1
    53     4    30    1
