@<TRIPOS>MOLECULE
*****
 50 53 0 0 0
SMALL
GASTEIGER

@<TRIPOS>ATOM
     1 C         1.041656   -1.75708   -0.773582 C.3        1 UNL1     0.1889
     2 C         -0.221725   -0.8654   -0.636775 C.3        1 UNL1     0.1342
     3 C         -1.460393   -1.588508   -0.086064 C.3        1 UNL1     0.1174
     4 C         -1.548046   -3.046969   -0.542492 C.3        1 UNL1     0.1456
     5 C         -0.209855   -3.793535   -0.393336 C.3        1 UNL1     0.2326
     6 O         0.809767   -3.113924   -1.122287 O.3        1 UNL1     -0.3076
     7 O         0.151346   -4.054807   0.975091 O.3        1 UNL1     -0.4605
     8 C         0.879844   -5.209032   1.199995 C.ar        1 UNL1     0.1310
     9 C         0.594209   -6.46631   0.656887 C.ar        1 UNL1     0.0226
     10 C         1.404471   -7.574412   0.931638 C.ar        1 UNL1     0.1343
     11 C         2.534775   -7.446772   1.737841 C.ar        1 UNL1     0.1007
     12 C         2.807081   -6.20546   2.319028 C.ar        1 UNL1     0.1389
     13 C         1.990714   -5.092023   2.044741 C.ar        1 UNL1     0.0229
     14 C         3.472313   -8.56482   1.993076 C.2        1 UNL1     0.1740
     15 C         4.746794   -8.196276   2.694091 C.3        1 UNL1     0.0520
     16 C         4.422357   -7.181473   3.78169 C.3        1 UNL1     0.1322
     17 O         3.830231   -5.992515   3.213503 O.3        1 UNL1     -0.4828
     18 C         3.65052   -7.771425   4.964461 C.ar        1 UNL1     -0.0067
     19 C         2.498244   -7.11103   5.43812 C.ar        1 UNL1     -0.0516
     20 C         1.796324   -7.597654   6.547384 C.ar        1 UNL1     -0.0198
     21 C         2.239732   -8.737018   7.194737 C.ar        1 UNL1     0.1169
     22 C         3.351766   -9.428175   6.731571 C.ar        1 UNL1     -0.0198
     23 C         4.04316   -8.952129   5.61112 C.ar        1 UNL1     -0.0516
     24 O         1.552511   -9.159809   8.294454 O.3        1 UNL1     -0.5068
     25 O         3.280959   -9.711494   1.596836 O.2        1 UNL1     -0.2917
     26 O         1.070449   -8.772897   0.371597 O.3        1 UNL1     -0.5058
     27 O         1.935282   -1.643363   0.322451 O.3        1 UNL1     -0.3648
     28 O         -0.565548   -0.358557   -1.939696 O.3        1 UNL1     -0.3841
     29 O         -1.540612   -1.447142   1.333694 O.3        1 UNL1     -0.3863
     30 O         -1.949219   -3.086061   -1.929295 O.3        1 UNL1     -0.3829
     31 H         1.609027   -1.367084   -1.62568 H        1 UNL1     0.0937
     32 H         0.0   0.0   0.0 H        1 UNL1     0.0671
     33 H         -2.349897   -1.077958   -0.480831 H        1 UNL1     0.0649
     34 H         -2.320873   -3.572097   0.029679 H        1 UNL1     0.0683
     35 H         -0.382376   -4.750007   -0.902528 H        1 UNL1     0.1085
     36 H         -0.237695   -6.618563   -0.021991 H        1 UNL1     0.0691
     37 H         2.223547   -4.136868   2.510532 H        1 UNL1     0.0691
     38 H         5.424868   -7.770889   1.946569 H        1 UNL1     0.0385
     39 H         5.209146   -9.103142   3.098571 H        1 UNL1     0.0385
     40 H         5.37833   -6.838898   4.200354 H        1 UNL1     0.0789
     41 H         2.135132   -6.20968   4.952972 H        1 UNL1     0.0623
     42 H         0.916089   -7.072788   6.910307 H        1 UNL1     0.0654
     43 H         3.698857   -10.329858   7.221883 H        1 UNL1     0.0654
     44 H         4.901457   -9.523082   5.270262 H        1 UNL1     0.0623
     45 H         1.581836   -8.456751   8.963458 H        1 UNL1     0.2921
     46 H         1.820048   -9.1088   -0.144817 H        1 UNL1     0.2922
     47 H         2.191989   -0.719503   0.450687 H        1 UNL1     0.2126
     48 H         0.193352   0.177471   -2.24049 H        1 UNL1     0.2101
     49 H         -1.747094   -0.526938   1.56257 H        1 UNL1     0.2100
     50 H         -2.861707   -2.734654   -1.98922 H        1 UNL1     0.2102
@<TRIPOS>BOND
     1     1     2    1
     2     1     6    1
     3     2     3    1
     4     3     4    1
     5     3    29    1
     6     3    33    1
     7     4     5    1
     8     5     6    1
     9     5     7    1
    10     5    35    1
    11     7     8    1
    12     8     9   ar
    13     8    13   ar
    14     9    10   ar
    15     9    36    1
    16    10    11   ar
    17    10    26    1
    18    11    12   ar
    19    11    14    1
    20    12    13   ar
    21    12    17    1
    22    13    37    1
    23    14    15    1
    24    14    25    2
    25    15    16    1
    26    15    38    1
    27    15    39    1
    28    16    17    1
    29    16    18    1
    30    16    40    1
    31    18    19   ar
    32    18    23   ar
    33    19    20   ar
    34    19    41    1
    35    20    21   ar
    36    20    42    1
    37    21    22   ar
    38    21    24    1
    39    22    23   ar
    40    22    43    1
    41    23    44    1
    42    24    45    1
    43    26    46    1
    44    27    47    1
    45    28    48    1
    46    29    49    1
    47    30    50    1
    48     1    31    1
    49     1    27    1
    50     2    32    1
    51     2    28    1
    52     4    34    1
    53     4    30    1
