@<TRIPOS>MOLECULE
*****
 50 53 0 0 0
SMALL
GASTEIGER

@<TRIPOS>ATOM
     1 C         -0.021346   -1.191932   1.830204 C.3        1 UNL1     0.1889
     2 C         -0.288145   -1.011662   0.311566 C.3        1 UNL1     0.1342
     3 C         -1.738895   -1.274866   -0.120306 C.3        1 UNL1     0.1174
     4 C         -2.406136   -2.389638   0.689131 C.3        1 UNL1     0.1456
     5 C         -2.169838   -2.242068   2.203314 C.3        1 UNL1     0.2326
     6 O         -0.770751   -2.210543   2.476129 O.3        1 UNL1     -0.3076
     7 O         -2.885819   -1.140299   2.790508 O.3        1 UNL1     -0.4605
     8 C         -3.295029   -1.312578   4.10062 C.ar        1 UNL1     0.1310
     9 C         -3.90527   -2.461854   4.614498 C.ar        1 UNL1     0.0226
     10 C         -4.268718   -2.54657   5.963806 C.ar        1 UNL1     0.1343
     11 C         -4.008841   -1.492096   6.8381 C.ar        1 UNL1     0.1007
     12 C         -3.437249   -0.323443   6.32789 C.ar        1 UNL1     0.1389
     13 C         -3.074305   -0.237502   4.97057 C.ar        1 UNL1     0.0229
     14 C         -4.295314   -1.560374   8.289798 C.2        1 UNL1     0.1740
     15 C         -3.749714   -0.430748   9.113094 C.3        1 UNL1     0.0520
     16 C         -3.937674   0.865576   8.337096 C.3        1 UNL1     0.1322
     17 O         -3.236532   0.813993   7.075031 O.3        1 UNL1     -0.4828
     18 C         -5.396849   1.316064   8.234179 C.ar        1 UNL1     -0.0067
     19 C         -5.748201   2.31936   7.307808 C.ar        1 UNL1     -0.0516
     20 C         -7.064619   2.787864   7.221148 C.ar        1 UNL1     -0.0198
     21 C         -8.035153   2.267542   8.058498 C.ar        1 UNL1     0.1169
     22 C         -7.726946   1.255101   8.957837 C.ar        1 UNL1     -0.0198
     23 C         -6.414483   0.773426   9.0319 C.ar        1 UNL1     -0.0516
     24 O         -9.298159   2.775147   7.971589 O.3        1 UNL1     -0.5068
     25 O         -4.86879   -2.507152   8.821983 O.2        1 UNL1     -0.2917
     26 O         -4.861394   -3.694863   6.40169 O.3        1 UNL1     -0.5058
     27 O         -0.055357   0.025082   2.558562 O.3        1 UNL1     -0.3648
     28 O         0.54804   -1.934287   -0.411113 O.3        1 UNL1     -0.3841
     29 O         -2.495568   -0.062604   -0.121109 O.3        1 UNL1     -0.3863
     30 O         -1.88249   -3.665258   0.259853 O.3        1 UNL1     -0.3829
     31 H         1.014357   -1.535415   1.927254 H        1 UNL1     0.0937
     32 H         0.0   0.0   0.0 H        1 UNL1     0.0671
     33 H         -1.721806   -1.60883   -1.167157 H        1 UNL1     0.0649
     34 H         -3.483586   -2.402285   0.49078 H        1 UNL1     0.0683
     35 H         -2.555761   -3.179145   2.623825 H        1 UNL1     0.1085
     36 H         -4.083266   -3.336743   3.998863 H        1 UNL1     0.0691
     37 H         -2.631814   0.683791   4.597856 H        1 UNL1     0.0691
     38 H         -2.688406   -0.633717   9.291852 H        1 UNL1     0.0385
     39 H         -4.262119   -0.411919   10.081012 H        1 UNL1     0.0385
     40 H         -3.428117   1.657836   8.90207 H        1 UNL1     0.0789
     41 H         -5.002835   2.750396   6.645775 H        1 UNL1     0.0623
     42 H         -7.320556   3.570259   6.51096 H        1 UNL1     0.0654
     43 H         -8.482429   0.82998   9.607782 H        1 UNL1     0.0654
     44 H         -6.211524   -0.025498   9.738564 H        1 UNL1     0.0623
     45 H         -9.275   3.704713   8.251031 H        1 UNL1     0.2921
     46 H         -4.359572   -4.052475   7.151157 H        1 UNL1     0.2922
     47 H         0.557623   0.664894   2.170287 H        1 UNL1     0.2126
     48 H         1.470675   -1.650394   -0.263189 H        1 UNL1     0.2101
     49 H         -2.197404   0.512049   -0.844065 H        1 UNL1     0.2100
     50 H         -2.185018   -3.821684   -0.65869 H        1 UNL1     0.2102
@<TRIPOS>BOND
     1     1     2    1
     2     1     6    1
     3     2     3    1
     4     3     4    1
     5     3    29    1
     6     3    33    1
     7     4     5    1
     8     5     6    1
     9     5     7    1
    10     5    35    1
    11     7     8    1
    12     8     9   ar
    13     8    13   ar
    14     9    10   ar
    15     9    36    1
    16    10    11   ar
    17    10    26    1
    18    11    12   ar
    19    11    14    1
    20    12    13   ar
    21    12    17    1
    22    13    37    1
    23    14    15    1
    24    14    25    2
    25    15    16    1
    26    15    38    1
    27    15    39    1
    28    16    17    1
    29    16    18    1
    30    16    40    1
    31    18    19   ar
    32    18    23   ar
    33    19    20   ar
    34    19    41    1
    35    20    21   ar
    36    20    42    1
    37    21    22   ar
    38    21    24    1
    39    22    23   ar
    40    22    43    1
    41    23    44    1
    42    24    45    1
    43    26    46    1
    44    27    47    1
    45    28    48    1
    46    29    49    1
    47    30    50    1
    48     1    31    1
    49     1    27    1
    50     2    32    1
    51     2    28    1
    52     4    34    1
    53     4    30    1
