@<TRIPOS>MOLECULE
*****
 50 53 0 0 0
SMALL
GASTEIGER

@<TRIPOS>ATOM
     1 C         -0.370777   -1.397952   1.636783 C.3        1 UNL1     0.1889
     2 C         -0.487851   -0.971305   0.148762 C.3        1 UNL1     0.1342
     3 C         -1.92636   -0.896625   -0.385636 C.3        1 UNL1     0.1174
     4 C         -2.841394   -1.962615   0.222223 C.3        1 UNL1     0.1456
     5 C         -2.694863   -2.0639   1.751483 C.3        1 UNL1     0.2326
     6 O         -1.337009   -2.333238   2.092889 O.3        1 UNL1     -0.3076
     7 O         -3.242075   -0.93439   2.455816 O.3        1 UNL1     -0.4605
     8 C         -3.771239   -1.198153   3.706393 C.ar        1 UNL1     0.1310
     9 C         -4.614751   -2.269372   4.019885 C.ar        1 UNL1     0.0226
     10 C         -5.086153   -2.461745   5.323984 C.ar        1 UNL1     0.1343
     11 C         -4.705897   -1.600324   6.352187 C.ar        1 UNL1     0.1007
     12 C         -3.897075   -0.503444   6.043247 C.ar        1 UNL1     0.1389
     13 C         -3.425355   -0.308723   4.73138 C.ar        1 UNL1     0.0229
     14 C         -5.106397   -1.804767   7.763553 C.2        1 UNL1     0.1740
     15 C         -4.428581   -0.917369   8.76587 C.3        1 UNL1     0.0520
     16 C         -4.322159   0.48219   8.176069 C.3        1 UNL1     0.1322
     17 O         -3.550514   0.466688   6.954842 O.3        1 UNL1     -0.4828
     18 C         -5.664684   1.209433   8.068974 C.ar        1 UNL1     -0.0067
     19 C         -5.687016   2.57299   7.710606 C.ar        1 UNL1     -0.0516
     20 C         -6.893809   3.280032   7.649741 C.ar        1 UNL1     -0.0198
     21 C         -8.081618   2.638219   7.951423 C.ar        1 UNL1     0.1169
     22 C         -8.095352   1.287701   8.275076 C.ar        1 UNL1     -0.0198
     23 C         -6.890603   0.575809   8.318049 C.ar        1 UNL1     -0.0516
     24 O         -9.233048   3.368639   7.918312 O.3        1 UNL1     -0.5068
     25 O         -5.878727   -2.688294   8.126005 O.2        1 UNL1     -0.2917
     26 O         -5.906646   -3.525269   5.563345 O.3        1 UNL1     -0.5058
     27 O         -0.238734   -0.303618   2.529971 O.3        1 UNL1     -0.3648
     28 O         0.219538   -1.931242   -0.657976 O.3        1 UNL1     -0.3841
     29 O         -2.45016   0.425866   -0.248589 O.3        1 UNL1     -0.3863
     30 O         -2.525812   -3.245907   -0.360236 O.3        1 UNL1     -0.3829
     31 H         0.576082   -1.940407   1.733111 H        1 UNL1     0.0937
     32 H         0.0   0.0   0.0 H        1 UNL1     0.0671
     33 H         -1.892436   -1.086342   -1.467568 H        1 UNL1     0.0649
     34 H         -3.885863   -1.745432   -0.027413 H        1 UNL1     0.0683
     35 H         -3.273233   -2.958594   2.013953 H        1 UNL1     0.1085
     36 H         -4.901451   -3.005704   3.277094 H        1 UNL1     0.0691
     37 H         -2.797872   0.553616   4.516605 H        1 UNL1     0.0691
     38 H         -3.437333   -1.33873   8.964384 H        1 UNL1     0.0385
     39 H         -4.999275   -0.93043   9.700705 H        1 UNL1     0.0385
     40 H         -3.721381   1.082272   8.872838 H        1 UNL1     0.0789
     41 H         -4.767263   3.101813   7.478115 H        1 UNL1     0.0623
     42 H         -6.89671   4.334179   7.383703 H        1 UNL1     0.0654
     43 H         -9.021418   0.771551   8.49846 H        1 UNL1     0.0654
     44 H         -6.939605   -0.480519   8.56425 H        1 UNL1     0.0623
     45 H         -9.189807   4.041195   8.617251 H        1 UNL1     0.2921
     46 H         -5.635035   -3.965049   6.384462 H        1 UNL1     0.2922
     47 H         0.506429   0.254711   2.267559 H        1 UNL1     0.2126
     48 H         1.171705   -1.779339   -0.502947 H        1 UNL1     0.2101
     49 H         -2.143455   0.980129   -0.983789 H        1 UNL1     0.2100
     50 H         -2.78289   -3.219544   -1.305185 H        1 UNL1     0.2102
@<TRIPOS>BOND
     1     1     2    1
     2     1     6    1
     3     2     3    1
     4     3     4    1
     5     3    29    1
     6     3    33    1
     7     4     5    1
     8     5     6    1
     9     5     7    1
    10     5    35    1
    11     7     8    1
    12     8     9   ar
    13     8    13   ar
    14     9    10   ar
    15     9    36    1
    16    10    11   ar
    17    10    26    1
    18    11    12   ar
    19    11    14    1
    20    12    13   ar
    21    12    17    1
    22    13    37    1
    23    14    15    1
    24    14    25    2
    25    15    16    1
    26    15    38    1
    27    15    39    1
    28    16    17    1
    29    16    18    1
    30    16    40    1
    31    18    19   ar
    32    18    23   ar
    33    19    20   ar
    34    19    41    1
    35    20    21   ar
    36    20    42    1
    37    21    22   ar
    38    21    24    1
    39    22    23   ar
    40    22    43    1
    41    23    44    1
    42    24    45    1
    43    26    46    1
    44    27    47    1
    45    28    48    1
    46    29    49    1
    47    30    50    1
    48     1    31    1
    49     1    27    1
    50     2    32    1
    51     2    28    1
    52     4    34    1
    53     4    30    1
