@<TRIPOS>MOLECULE
*****
 50 53 0 0 0
SMALL
GASTEIGER

@<TRIPOS>ATOM
     1 C         -1.55982   0.923567   1.218519 C.3        1 UNL1     0.1889
     2 C         -0.155707   0.283712   1.048248 C.3        1 UNL1     0.1342
     3 C         0.104737   -0.938409   1.942146 C.3        1 UNL1     0.1174
     4 C         -0.5701   -0.826718   3.311539 C.3        1 UNL1     0.1456
     5 C         -2.035348   -0.364753   3.211537 C.3        1 UNL1     0.2326
     6 O         -2.105452   0.885052   2.528938 O.3        1 UNL1     -0.3076
     7 O         -2.914173   -1.361474   2.658787 O.3        1 UNL1     -0.4605
     8 C         -4.051066   -0.885919   2.030415 C.ar        1 UNL1     0.1310
     9 C         -4.873377   -1.626101   1.174124 C.ar        1 UNL1     0.0226
     10 C         -6.016088   -1.058278   0.598198 C.ar        1 UNL1     0.1343
     11 C         -6.377651   0.257617   0.883734 C.ar        1 UNL1     0.1007
     12 C         -5.542046   1.019421   1.704833 C.ar        1 UNL1     0.1389
     13 C         -4.391679   0.449057   2.281697 C.ar        1 UNL1     0.0229
     14 C         -7.618988   0.881316   0.369694 C.2        1 UNL1     0.1740
     15 C         -7.962931   2.220065   0.953649 C.3        1 UNL1     0.0520
     16 C         -6.68022   3.027892   1.09516 C.3        1 UNL1     0.1322
     17 O         -5.743791   2.35496   1.965409 O.3        1 UNL1     -0.4828
     18 C         -6.089132   3.484627   -0.240778 C.ar        1 UNL1     -0.0067
     19 C         -6.682602   4.563397   -0.927994 C.ar        1 UNL1     -0.0516
     20 C         -6.196297   4.975872   -2.174322 C.ar        1 UNL1     -0.0198
     21 C         -5.124167   4.314533   -2.746157 C.ar        1 UNL1     0.1169
     22 C         -4.497528   3.270248   -2.0786 C.ar        1 UNL1     -0.0198
     23 C         -4.971997   2.869488   -0.823878 C.ar        1 UNL1     -0.0516
     24 O         -4.702109   4.719955   -3.978188 O.3        1 UNL1     -0.5068
     25 O         -8.376961   0.326381   -0.421514 O.2        1 UNL1     -0.2917
     26 O         -6.775081   -1.833592   -0.229089 O.3        1 UNL1     -0.5058
     27 O         -2.49938   0.491916   0.247082 O.3        1 UNL1     -0.3648
     28 O         0.838685   1.272502   1.374108 O.3        1 UNL1     -0.3841
     29 O         -0.229025   -2.147626   1.257654 O.3        1 UNL1     -0.3863
     30 O         0.160011   0.118183   4.123813 O.3        1 UNL1     -0.3829
     31 H         -1.441406   1.994723   1.021839 H        1 UNL1     0.0937
     32 H         0.0   -0.0   0.0 H        1 UNL1     0.0671
     33 H         1.186888   -0.995723   2.124862 H        1 UNL1     0.0649
     34 H         -0.529697   -1.792018   3.828225 H        1 UNL1     0.0683
     35 H         -2.324883   -0.176096   4.25291 H        1 UNL1     0.1085
     36 H         -4.677395   -2.670401   0.956984 H        1 UNL1     0.0691
     37 H         -3.757086   1.063684   2.916534 H        1 UNL1     0.0691
     38 H         -8.429636   2.045902   1.929036 H        1 UNL1     0.0385
     39 H         -8.695418   2.715967   0.307644 H        1 UNL1     0.0385
     40 H         -6.937075   3.952048   1.630399 H        1 UNL1     0.0789
     41 H         -7.531078   5.092976   -0.504574 H        1 UNL1     0.0623
     42 H         -6.670009   5.801414   -2.699763 H        1 UNL1     0.0654
     43 H         -3.64776   2.755177   -2.510463 H        1 UNL1     0.0654
     44 H         -4.451748   2.056912   -0.325976 H        1 UNL1     0.0623
     45 H         -3.964562   5.340423   -3.860884 H        1 UNL1     0.2921
     46 H         -7.570511   -1.343979   -0.491734 H        1 UNL1     0.2922
     47 H         -2.276963   0.85873   -0.620004 H        1 UNL1     0.2126
     48 H         1.703311   0.8193   1.346522 H        1 UNL1     0.2101
     49 H         -1.193104   -2.254672   1.227875 H        1 UNL1     0.2100
     50 H         1.114794   0.000188   3.938936 H        1 UNL1     0.2102
@<TRIPOS>BOND
     1     1     2    1
     2     1     6    1
     3     2     3    1
     4     3     4    1
     5     3    29    1
     6     3    33    1
     7     4     5    1
     8     5     6    1
     9     5     7    1
    10     5    35    1
    11     7     8    1
    12     8     9   ar
    13     8    13   ar
    14     9    10   ar
    15     9    36    1
    16    10    11   ar
    17    10    26    1
    18    11    12   ar
    19    11    14    1
    20    12    13   ar
    21    12    17    1
    22    13    37    1
    23    14    15    1
    24    14    25    2
    25    15    16    1
    26    15    38    1
    27    15    39    1
    28    16    17    1
    29    16    18    1
    30    16    40    1
    31    18    19   ar
    32    18    23   ar
    33    19    20   ar
    34    19    41    1
    35    20    21   ar
    36    20    42    1
    37    21    22   ar
    38    21    24    1
    39    22    23   ar
    40    22    43    1
    41    23    44    1
    42    24    45    1
    43    26    46    1
    44    27    47    1
    45    28    48    1
    46    29    49    1
    47    30    50    1
    48     1    31    1
    49     1    27    1
    50     2    32    1
    51     2    28    1
    52     4    34    1
    53     4    30    1
