@<TRIPOS>MOLECULE
*****
 50 53 0 0 0
SMALL
GASTEIGER

@<TRIPOS>ATOM
     1 C         -0.3322   -1.328267   1.70181 C.3        1 UNL1     0.1889
     2 C         -0.462543   -0.975358   0.195687 C.3        1 UNL1     0.1342
     3 C         -1.903341   -0.962717   -0.33761 C.3        1 UNL1     0.1174
     4 C         -2.789769   -2.021897   0.322315 C.3        1 UNL1     0.1456
     5 C         -2.638256   -2.047215   1.854231 C.3        1 UNL1     0.2326
     6 O         -1.2734   -2.265391   2.20414 O.3        1 UNL1     -0.3076
     7 O         -3.213136   -0.90011   2.506138 O.3        1 UNL1     -0.4605
     8 C         -3.723187   -1.115562   3.773796 C.ar        1 UNL1     0.1310
     9 C         -4.539772   -2.188451   4.147156 C.ar        1 UNL1     0.0226
     10 C         -4.99307   -2.328846   5.464241 C.ar        1 UNL1     0.1343
     11 C         -4.620861   -1.4118   6.446243 C.ar        1 UNL1     0.1007
     12 C         -3.839468   -0.313807   6.076622 C.ar        1 UNL1     0.1389
     13 C         -3.385986   -0.171429   4.751664 C.ar        1 UNL1     0.0229
     14 C         -5.001883   -1.557658   7.870217 C.2        1 UNL1     0.1740
     15 C         -4.333043   -0.609559   8.821695 C.3        1 UNL1     0.0520
     16 C         -4.263411   0.762448   8.165413 C.3        1 UNL1     0.1322
     17 O         -3.504548   0.705565   6.937422 O.3        1 UNL1     -0.4828
     18 C         -5.622537   1.455052   8.039722 C.ar        1 UNL1     -0.0067
     19 C         -6.000479   2.019625   6.804152 C.ar        1 UNL1     -0.0516
     20 C         -7.215619   2.701352   6.667602 C.ar        1 UNL1     -0.0198
     21 C         -8.056329   2.831428   7.758525 C.ar        1 UNL1     0.1169
     22 C         -7.727159   2.257488   8.979623 C.ar        1 UNL1     -0.0198
     23 C         -6.520558   1.559817   9.111625 C.ar        1 UNL1     -0.0516
     24 O         -9.213874   3.534663   7.597436 O.3        1 UNL1     -0.5068
     25 O         -5.750885   -2.439275   8.282811 O.2        1 UNL1     -0.2917
     26 O         -5.787593   -3.397071   5.762929 O.3        1 UNL1     -0.5058
     27 O         -0.226846   -0.190035   2.542117 O.3        1 UNL1     -0.3648
     28 O         0.267948   -1.95387   -0.566942 O.3        1 UNL1     -0.3841
     29 O         -2.460669   0.350953   -0.261509 O.3        1 UNL1     -0.3863
     30 O         -2.442304   -3.322736   -0.199966 O.3        1 UNL1     -0.3829
     31 H         0.628412   -1.841216   1.82092 H        1 UNL1     0.0937
     32 H         0.0   0.0   0.0 H        1 UNL1     0.0671
     33 H         -1.866284   -1.202289   -1.409501 H        1 UNL1     0.0649
     34 H         -3.839859   -1.843471   0.065653 H        1 UNL1     0.0683
     35 H         -3.193072   -2.943025   2.160146 H        1 UNL1     0.1085
     36 H         -4.818166   -2.96507   3.443253 H        1 UNL1     0.0691
     37 H         -2.779767   0.692937   4.489247 H        1 UNL1     0.0691
     38 H         -3.330797   -0.999846   9.028352 H        1 UNL1     0.0385
     39 H         -4.893414   -0.590485   9.762651 H        1 UNL1     0.0385
     40 H         -3.668544   1.407508   8.826133 H        1 UNL1     0.0789
     41 H         -5.353909   1.939115   5.935178 H        1 UNL1     0.0623
     42 H         -7.490343   3.142581   5.712691 H        1 UNL1     0.0654
     43 H         -8.38512   2.340393   9.836433 H        1 UNL1     0.0654
     44 H         -6.300276   1.115092   10.077307 H        1 UNL1     0.0623
     45 H         -8.9876   4.442576   7.338187 H        1 UNL1     0.2921
     46 H         -5.38395   -3.909715   6.481038 H        1 UNL1     0.2922
     47 H         0.516198   0.363632   2.264272 H        1 UNL1     0.2126
     48 H         1.200856   -1.888118   -0.285709 H        1 UNL1     0.2101
     49 H         -2.021713   0.933267   -0.901839 H        1 UNL1     0.2100
     50 H         -2.675502   -3.337786   -1.151336 H        1 UNL1     0.2102
@<TRIPOS>BOND
     1     1     2    1
     2     1     6    1
     3     2     3    1
     4     3     4    1
     5     3    29    1
     6     3    33    1
     7     4     5    1
     8     5     6    1
     9     5     7    1
    10     5    35    1
    11     7     8    1
    12     8     9   ar
    13     8    13   ar
    14     9    10   ar
    15     9    36    1
    16    10    11   ar
    17    10    26    1
    18    11    12   ar
    19    11    14    1
    20    12    13   ar
    21    12    17    1
    22    13    37    1
    23    14    15    1
    24    14    25    2
    25    15    16    1
    26    15    38    1
    27    15    39    1
    28    16    17    1
    29    16    18    1
    30    16    40    1
    31    18    19   ar
    32    18    23   ar
    33    19    20   ar
    34    19    41    1
    35    20    21   ar
    36    20    42    1
    37    21    22   ar
    38    21    24    1
    39    22    23   ar
    40    22    43    1
    41    23    44    1
    42    24    45    1
    43    26    46    1
    44    27    47    1
    45    28    48    1
    46    29    49    1
    47    30    50    1
    48     1    31    1
    49     1    27    1
    50     2    32    1
    51     2    28    1
    52     4    34    1
    53     4    30    1
