@<TRIPOS>MOLECULE
*****
 50 53 0 0 0
SMALL
GASTEIGER

@<TRIPOS>ATOM
     1 C         -0.643337   -1.80866   -1.041956 C.3        1 UNL1     0.1889
     2 C         -0.661125   -0.85601   0.183639 C.3        1 UNL1     0.1342
     3 C         -0.268661   -1.515839   1.514452 C.3        1 UNL1     0.1174
     4 C         -0.73561   -2.97004   1.616325 C.3        1 UNL1     0.1456
     5 C         -0.424508   -3.780297   0.344687 C.3        1 UNL1     0.2326
     6 O         -1.020914   -3.15393   -0.788818 O.3        1 UNL1     -0.3076
     7 O         0.977395   -4.053604   0.1678 O.3        1 UNL1     -0.4605
     8 C         1.390985   -4.283056   -1.132133 C.ar        1 UNL1     0.1310
     9 C         2.721372   -4.337517   -1.561555 C.ar        1 UNL1     0.0226
     10 C         3.039763   -4.593558   -2.900574 C.ar        1 UNL1     0.1343
     11 C         2.034967   -4.825179   -3.838965 C.ar        1 UNL1     0.1007
     12 C         0.7018   -4.732781   -3.430418 C.ar        1 UNL1     0.1389
     13 C         0.381872   -4.472703   -2.084522 C.ar        1 UNL1     0.0229
     14 C         2.316456   -5.182886   -5.248562 C.2        1 UNL1     0.1740
     15 C         1.129301   -5.614726   -6.058331 C.3        1 UNL1     0.0520
     16 C         -0.05076   -4.723424   -5.696398 C.3        1 UNL1     0.1322
     17 O         -0.366303   -4.835929   -4.291106 O.3        1 UNL1     -0.4828
     18 C         0.085008   -3.285468   -6.202927 C.ar        1 UNL1     -0.0067
     19 C         1.316189   -2.613566   -6.058167 C.ar        1 UNL1     -0.0516
     20 C         1.460596   -1.282552   -6.467449 C.ar        1 UNL1     -0.0198
     21 C         0.381736   -0.611633   -7.01495 C.ar        1 UNL1     0.1169
     22 C         -0.833987   -1.25675   -7.201176 C.ar        1 UNL1     -0.0198
     23 C         -0.973411   -2.593451   -6.808942 C.ar        1 UNL1     -0.0516
     24 O         0.549313   0.695405   -7.367047 O.3        1 UNL1     -0.5068
     25 O         3.447681   -5.210671   -5.726099 O.2        1 UNL1     -0.2917
     26 O         4.356819   -4.632336   -3.254758 O.3        1 UNL1     -0.5058
     27 O         0.554606   -1.734391   -1.798397 O.3        1 UNL1     -0.3648
     28 O         -1.995342   -0.338019   0.339381 O.3        1 UNL1     -0.3841
     29 O         1.130732   -1.365302   1.761772 O.3        1 UNL1     -0.3863
     30 O         -2.16133   -2.994862   1.845226 O.3        1 UNL1     -0.3829
     31 H         -1.418258   -1.450016   -1.728214 H        1 UNL1     0.0937
     32 H         0.0   0.0   0.0 H        1 UNL1     0.0671
     33 H         -0.768794   -0.964102   2.322643 H        1 UNL1     0.0649
     34 H         -0.264074   -3.454724   2.478378 H        1 UNL1     0.0683
     35 H         -0.953164   -4.729177   0.499698 H        1 UNL1     0.1085
     36 H         3.548891   -4.221542   -0.870264 H        1 UNL1     0.0691
     37 H         -0.663792   -4.404716   -1.792189 H        1 UNL1     0.0691
     38 H         0.923536   -6.661853   -5.811933 H        1 UNL1     0.0385
     39 H         1.380701   -5.556862   -7.122862 H        1 UNL1     0.0385
     40 H         -0.93286   -5.130108   -6.209261 H        1 UNL1     0.0789
     41 H         2.175518   -3.115329   -5.622923 H        1 UNL1     0.0623
     42 H         2.411733   -0.771667   -6.339602 H        1 UNL1     0.0654
     43 H         -1.681009   -0.745389   -7.642735 H        1 UNL1     0.0654
     44 H         -1.934339   -3.069432   -6.978957 H        1 UNL1     0.0623
     45 H         0.942075   1.167662   -6.615097 H        1 UNL1     0.2921
     46 H         4.637062   -5.555509   -3.357843 H        1 UNL1     0.2922
     47 H         0.568535   -2.428202   -2.472409 H        1 UNL1     0.2126
     48 H         -2.567497   -1.099373   0.555509 H        1 UNL1     0.2101
     49 H         1.399701   -1.939662   2.496319 H        1 UNL1     0.2100
     50 H         -2.563347   -3.590024   1.178985 H        1 UNL1     0.2102
@<TRIPOS>BOND
     1     1     2    1
     2     1     6    1
     3     2     3    1
     4     3     4    1
     5     3    29    1
     6     3    33    1
     7     4     5    1
     8     5     6    1
     9     5     7    1
    10     5    35    1
    11     7     8    1
    12     8     9   ar
    13     8    13   ar
    14     9    10   ar
    15     9    36    1
    16    10    11   ar
    17    10    26    1
    18    11    12   ar
    19    11    14    1
    20    12    13   ar
    21    12    17    1
    22    13    37    1
    23    14    15    1
    24    14    25    2
    25    15    16    1
    26    15    38    1
    27    15    39    1
    28    16    17    1
    29    16    18    1
    30    16    40    1
    31    18    19   ar
    32    18    23   ar
    33    19    20   ar
    34    19    41    1
    35    20    21   ar
    36    20    42    1
    37    21    22   ar
    38    21    24    1
    39    22    23   ar
    40    22    43    1
    41    23    44    1
    42    24    45    1
    43    26    46    1
    44    27    47    1
    45    28    48    1
    46    29    49    1
    47    30    50    1
    48     1    31    1
    49     1    27    1
    50     2    32    1
    51     2    28    1
    52     4    34    1
    53     4    30    1
