@<TRIPOS>MOLECULE
*****
 50 53 0 0 0
SMALL
GASTEIGER

@<TRIPOS>ATOM
     1 C         -0.337106   -1.332007   1.697917 C.3        1 UNL1     0.1889
     2 C         -0.463125   -0.975773   0.192209 C.3        1 UNL1     0.1342
     3 C         -1.90239   -0.961912   -0.345184 C.3        1 UNL1     0.1174
     4 C         -2.790729   -2.022518   0.309861 C.3        1 UNL1     0.1456
     5 C         -2.643607   -2.05122   1.842145 C.3        1 UNL1     0.2326
     6 O         -1.279764   -2.270208   2.19548 O.3        1 UNL1     -0.3076
     7 O         -3.220325   -0.905537   2.49493 O.3        1 UNL1     -0.4605
     8 C         -3.73401   -1.12377   3.760644 C.ar        1 UNL1     0.1310
     9 C         -4.551688   -2.197455   4.129296 C.ar        1 UNL1     0.0226
     10 C         -5.008761   -2.340741   5.444764 C.ar        1 UNL1     0.1343
     11 C         -4.639345   -1.425874   6.429848 C.ar        1 UNL1     0.1007
     12 C         -3.85687   -0.327092   6.06489 C.ar        1 UNL1     0.1389
     13 C         -3.39959   -0.181806   4.741554 C.ar        1 UNL1     0.0229
     14 C         -5.024448   -1.574861   7.852399 C.2        1 UNL1     0.1740
     15 C         -4.358314   -0.628883   8.807879 C.3        1 UNL1     0.0520
     16 C         -4.286769   0.744566   8.154827 C.3        1 UNL1     0.1322
     17 O         -3.524393   0.690369   6.928893 O.3        1 UNL1     -0.4828
     18 C         -5.645513   1.437487   8.02677 C.ar        1 UNL1     -0.0067
     19 C         -6.0199   2.004795   6.791371 C.ar        1 UNL1     -0.0516
     20 C         -7.234627   2.686858   6.652844 C.ar        1 UNL1     -0.0198
     21 C         -8.078456   2.814554   7.741639 C.ar        1 UNL1     0.1169
     22 C         -7.7528   2.237912   8.962405 C.ar        1 UNL1     -0.0198
     23 C         -6.546599   1.539915   9.096325 C.ar        1 UNL1     -0.0516
     24 O         -9.235518   3.518178   7.578785 O.3        1 UNL1     -0.5068
     25 O         -5.77465   -2.457362   8.260901 O.2        1 UNL1     -0.2917
     26 O         -5.804162   -3.409597   5.738817 O.3        1 UNL1     -0.5058
     27 O         -0.234133   -0.195635   2.541032 O.3        1 UNL1     -0.3648
     28 O         0.269525   -1.952623   -0.57048 O.3        1 UNL1     -0.3841
     29 O         -2.459901   0.351603   -0.267783 O.3        1 UNL1     -0.3863
     30 O         -2.441801   -3.322212   -0.214291 O.3        1 UNL1     -0.3829
     31 H         0.623148   -1.845246   1.818647 H        1 UNL1     0.0937
     32 H         0.0   0.0   0.0 H        1 UNL1     0.0671
     33 H         -1.862267   -1.19912   -1.417491 H        1 UNL1     0.0649
     34 H         -3.840076   -1.843495   0.050585 H        1 UNL1     0.0683
     35 H         -3.199319   -2.947685   2.144492 H        1 UNL1     0.1085
     36 H         -4.828083   -2.972511   3.422886 H        1 UNL1     0.0691
     37 H         -2.792601   0.683119   4.482782 H        1 UNL1     0.0691
     38 H         -3.356674   -1.019655   9.016545 H        1 UNL1     0.0385
     39 H         -4.921378   -0.611867   9.747266 H        1 UNL1     0.0385
     40 H         -3.693782   1.388149   8.81867 H        1 UNL1     0.0789
     41 H         -5.370845   1.926183   5.924078 H        1 UNL1     0.0623
     42 H         -7.506603   3.130202   5.698125 H        1 UNL1     0.0654
     43 H         -8.413211   2.318947   9.817508 H        1 UNL1     0.0654
     44 H         -6.329096   1.093055   10.061651 H        1 UNL1     0.0623
     45 H         -9.00848   4.426654   7.322189 H        1 UNL1     0.2921
     46 H         -5.402591   -3.923836   6.456947 H        1 UNL1     0.2922
     47 H         0.509718   0.358622   2.266539 H        1 UNL1     0.2126
     48 H         1.202106   -1.885563   -0.288475 H        1 UNL1     0.2101
     49 H         -2.019099   0.935316   -0.905566 H        1 UNL1     0.2100
     50 H         -2.672273   -3.335157   -1.166356 H        1 UNL1     0.2102
@<TRIPOS>BOND
     1     1     2    1
     2     1     6    1
     3     2     3    1
     4     3     4    1
     5     3    29    1
     6     3    33    1
     7     4     5    1
     8     5     6    1
     9     5     7    1
    10     5    35    1
    11     7     8    1
    12     8     9   ar
    13     8    13   ar
    14     9    10   ar
    15     9    36    1
    16    10    11   ar
    17    10    26    1
    18    11    12   ar
    19    11    14    1
    20    12    13   ar
    21    12    17    1
    22    13    37    1
    23    14    15    1
    24    14    25    2
    25    15    16    1
    26    15    38    1
    27    15    39    1
    28    16    17    1
    29    16    18    1
    30    16    40    1
    31    18    19   ar
    32    18    23   ar
    33    19    20   ar
    34    19    41    1
    35    20    21   ar
    36    20    42    1
    37    21    22   ar
    38    21    24    1
    39    22    23   ar
    40    22    43    1
    41    23    44    1
    42    24    45    1
    43    26    46    1
    44    27    47    1
    45    28    48    1
    46    29    49    1
    47    30    50    1
    48     1    31    1
    49     1    27    1
    50     2    32    1
    51     2    28    1
    52     4    34    1
    53     4    30    1
