@<TRIPOS>MOLECULE
*****
 50 53 0 0 0
SMALL
GASTEIGER

@<TRIPOS>ATOM
     1 C         -0.331879   -1.328013   1.70207 C.3        1 UNL1     0.1889
     2 C         -0.462349   -0.975409   0.195887 C.3        1 UNL1     0.1342
     3 C         -1.903171   -0.963143   -0.337355 C.3        1 UNL1     0.1174
     4 C         -2.78937   -2.02237   0.322802 C.3        1 UNL1     0.1456
     5 C         -2.637792   -2.047373   1.854717 C.3        1 UNL1     0.2326
     6 O         -1.272881   -2.265223   2.204612 O.3        1 UNL1     -0.3076
     7 O         -3.212866   -0.900256   2.506432 O.3        1 UNL1     -0.4605
     8 C         -3.722825   -1.11557   3.77415 C.ar        1 UNL1     0.1310
     9 C         -4.53919   -2.188545   4.147743 C.ar        1 UNL1     0.0226
     10 C         -4.99241   -2.328781   5.464872 C.ar        1 UNL1     0.1343
     11 C         -4.620338   -1.411481   6.446688 C.ar        1 UNL1     0.1007
     12 C         -3.839169   -0.313407   6.076832 C.ar        1 UNL1     0.1389
     13 C         -3.385766   -0.17119   4.75183 C.ar        1 UNL1     0.0229
     14 C         -5.001275   -1.557147   7.870704 C.2        1 UNL1     0.1740
     15 C         -4.332579   -0.608743   8.821979 C.3        1 UNL1     0.0520
     16 C         -4.263235   0.763155   8.165439 C.3        1 UNL1     0.1322
     17 O         -3.50441   0.706189   6.937429 O.3        1 UNL1     -0.4828
     18 C         -5.622498   1.455476   8.039672 C.ar        1 UNL1     -0.0067
     19 C         -6.000596   2.019747   6.804012 C.ar        1 UNL1     -0.0516
     20 C         -7.215872   2.701217   6.667383 C.ar        1 UNL1     -0.0198
     21 C         -8.056564   2.831335   7.758315 C.ar        1 UNL1     0.1169
     22 C         -7.727236   2.257686   8.979507 C.ar        1 UNL1     -0.0198
     23 C         -6.520497   1.56027   9.111592 C.ar        1 UNL1     -0.0516
     24 O         -9.21425   3.534319   7.59714 O.3        1 UNL1     -0.5068
     25 O         -5.750093   -2.438829   8.283493 O.2        1 UNL1     -0.2917
     26 O         -5.786717   -3.397101   5.76379 O.3        1 UNL1     -0.5058
     27 O         -0.226709   -0.189605   2.542162 O.3        1 UNL1     -0.3648
     28 O         0.268299   -1.953924   -0.566588 O.3        1 UNL1     -0.3841
     29 O         -2.460746   0.350434   -0.261478 O.3        1 UNL1     -0.3863
     30 O         -2.441678   -3.323239   -0.199251 O.3        1 UNL1     -0.3829
     31 H         0.628836   -1.840756   1.821238 H        1 UNL1     0.0937
     32 H         0.0   0.0   0.0 H        1 UNL1     0.0671
     33 H         -1.866109   -1.202908   -1.409204 H        1 UNL1     0.0649
     34 H         -3.839504   -1.844192   0.066148 H        1 UNL1     0.0683
     35 H         -3.192425   -2.943232   2.16082 H        1 UNL1     0.1085
     36 H         -4.817465   -2.965348   3.443995 H        1 UNL1     0.0691
     37 H         -2.779723   0.693243   4.489228 H        1 UNL1     0.0691
     38 H         -3.330251   -0.998799   9.02867 H        1 UNL1     0.0385
     39 H         -4.892916   -0.5896   9.762954 H        1 UNL1     0.0385
     40 H         -3.668465   1.408453   8.826015 H        1 UNL1     0.0789
     41 H         -5.354045   1.939199   5.935028 H        1 UNL1     0.0623
     42 H         -7.490718   3.142216   5.7124 H        1 UNL1     0.0654
     43 H         -8.385179   2.340625   9.836328 H        1 UNL1     0.0654
     44 H         -6.300092   1.115768   10.077348 H        1 UNL1     0.0623
     45 H         -8.988159   4.442228   7.337713 H        1 UNL1     0.2921
     46 H         -5.382948   -3.909535   6.481979 H        1 UNL1     0.2922
     47 H         0.516218   0.364153   2.264184 H        1 UNL1     0.2126
     48 H         1.201206   -1.887942   -0.285405 H        1 UNL1     0.2101
     49 H         -2.021927   0.932713   -0.901933 H        1 UNL1     0.2100
     50 H         -2.67491   -3.338511   -1.150609 H        1 UNL1     0.2102
@<TRIPOS>BOND
     1     1     2    1
     2     1     6    1
     3     2     3    1
     4     3     4    1
     5     3    29    1
     6     3    33    1
     7     4     5    1
     8     5     6    1
     9     5     7    1
    10     5    35    1
    11     7     8    1
    12     8     9   ar
    13     8    13   ar
    14     9    10   ar
    15     9    36    1
    16    10    11   ar
    17    10    26    1
    18    11    12   ar
    19    11    14    1
    20    12    13   ar
    21    12    17    1
    22    13    37    1
    23    14    15    1
    24    14    25    2
    25    15    16    1
    26    15    38    1
    27    15    39    1
    28    16    17    1
    29    16    18    1
    30    16    40    1
    31    18    19   ar
    32    18    23   ar
    33    19    20   ar
    34    19    41    1
    35    20    21   ar
    36    20    42    1
    37    21    22   ar
    38    21    24    1
    39    22    23   ar
    40    22    43    1
    41    23    44    1
    42    24    45    1
    43    26    46    1
    44    27    47    1
    45    28    48    1
    46    29    49    1
    47    30    50    1
    48     1    31    1
    49     1    27    1
    50     2    32    1
    51     2    28    1
    52     4    34    1
    53     4    30    1
