@<TRIPOS>MOLECULE
*****
 50 53 0 0 0
SMALL
GASTEIGER

@<TRIPOS>ATOM
     1 C         -0.330575   -1.327316   1.702867 C.3        1 UNL1     0.1889
     2 C         -0.461784   -0.975543   0.196554 C.3        1 UNL1     0.1342
     3 C         -1.90281   -0.964274   -0.336157 C.3        1 UNL1     0.1174
     4 C         -2.788229   -2.023612   0.324867 C.3        1 UNL1     0.1456
     5 C         -2.636068   -2.047762   1.856738 C.3        1 UNL1     0.2326
     6 O         -1.270916   -2.264746   2.206235 O.3        1 UNL1     -0.3076
     7 O         -3.211477   -0.900605   2.508086 O.3        1 UNL1     -0.4605
     8 C         -3.1871   0.280651   1.788663 C.ar        1 UNL1     0.1310
     9 C         -2.083867   0.780263   1.088259 C.ar        1 UNL1     0.0226
     10 C         -2.163824   1.981298   0.373398 C.ar        1 UNL1     0.1343
     11 C         -3.357139   2.700461   0.32198 C.ar        1 UNL1     0.1007
     12 C         -4.453756   2.232777   1.051011 C.ar        1 UNL1     0.1389
     13 C         -4.372331   1.026483   1.771883 C.ar        1 UNL1     0.0229
     14 C         -3.521588   3.931034   -0.48598 C.2        1 UNL1     0.1740
     15 C         -4.925482   4.447459   -0.604032 C.3        1 UNL1     0.0520
     16 C         -5.608093   4.300955   0.748941 C.3        1 UNL1     0.1322
     17 O         -5.642854   2.915981   1.158464 O.3        1 UNL1     -0.4828
     18 C         -5.078333   5.264255   1.813897 C.ar        1 UNL1     -0.0067
     19 C         -4.73045   4.766473   3.086454 C.ar        1 UNL1     -0.0516
     20 C         -4.287766   5.627131   4.098018 C.ar        1 UNL1     -0.0198
     21 C         -4.195848   6.985458   3.852403 C.ar        1 UNL1     0.1169
     22 C         -4.499326   7.5014   2.599189 C.ar        1 UNL1     -0.0198
     23 C         -4.924402   6.638613   1.581858 C.ar        1 UNL1     -0.0516
     24 O         -3.79709   7.797464   4.873206 O.3        1 UNL1     -0.5068
     25 O         -2.600336   4.467615   -1.095784 O.2        1 UNL1     -0.2917
     26 O         -1.051484   2.414244   -0.287542 O.3        1 UNL1     -0.5058
     27 O         -0.225666   -0.18843   2.542342 O.3        1 UNL1     -0.3648
     28 O         0.269074   -1.954076   -0.565697 O.3        1 UNL1     -0.3841
     29 O         -2.46102   0.34906   -0.260738 O.3        1 UNL1     -0.3863
     30 O         -2.440075   -3.324571   -0.196655 O.3        1 UNL1     -0.3829
     31 H         0.630443   -1.839515   1.821937 H        1 UNL1     0.0937
     32 H         0.0   0.0   0.0 H        1 UNL1     0.0671
     33 H         -1.866027   -1.204564   -1.407898 H        1 UNL1     0.0649
     34 H         -3.838548   -1.846094   0.068514 H        1 UNL1     0.0683
     35 H         -3.190135   -2.943745   2.163502 H        1 UNL1     0.1085
     36 H         -1.14468   0.239879   1.043157 H        1 UNL1     0.0691
     37 H         -5.239909   0.684591   2.332161 H        1 UNL1     0.0691
     38 H         -5.434156   3.851904   -1.369598 H        1 UNL1     0.0385
     39 H         -4.897612   5.488611   -0.943155 H        1 UNL1     0.0385
     40 H         -6.663262   4.572816   0.610276 H        1 UNL1     0.0789
     41 H         -4.80265   3.705464   3.307131 H        1 UNL1     0.0623
     42 H         -4.033836   5.232656   5.078794 H        1 UNL1     0.0654
     43 H         -4.41647   8.561551   2.39152 H        1 UNL1     0.0654
     44 H         -5.142996   7.074654   0.611842 H        1 UNL1     0.0623
     45 H         -4.434153   7.710818   5.600777 H        1 UNL1     0.2921
     46 H         -1.26042   2.536143   -1.227169 H        1 UNL1     0.2922
     47 H         0.516878   0.365562   2.263807 H        1 UNL1     0.2126
     48 H         1.202052   -1.88748   -0.284895 H        1 UNL1     0.2101
     49 H         -2.022674   0.931258   -0.901591 H        1 UNL1     0.2100
     50 H         -2.673654   -3.340443   -1.147918 H        1 UNL1     0.2102
@<TRIPOS>BOND
     1     1     2    1
     2     1     6    1
     3     2     3    1
     4     3     4    1
     5     3    29    1
     6     3    33    1
     7     4     5    1
     8     5     6    1
     9     5     7    1
    10     5    35    1
    11     7     8    1
    12     8     9   ar
    13     8    13   ar
    14     9    10   ar
    15     9    36    1
    16    10    11   ar
    17    10    26    1
    18    11    12   ar
    19    11    14    1
    20    12    13   ar
    21    12    17    1
    22    13    37    1
    23    14    15    1
    24    14    25    2
    25    15    16    1
    26    15    38    1
    27    15    39    1
    28    16    17    1
    29    16    18    1
    30    16    40    1
    31    18    19   ar
    32    18    23   ar
    33    19    20   ar
    34    19    41    1
    35    20    21   ar
    36    20    42    1
    37    21    22   ar
    38    21    24    1
    39    22    23   ar
    40    22    43    1
    41    23    44    1
    42    24    45    1
    43    26    46    1
    44    27    47    1
    45    28    48    1
    46    29    49    1
    47    30    50    1
    48     1    31    1
    49     1    27    1
    50     2    32    1
    51     2    28    1
    52     4    34    1
    53     4    30    1
