@<TRIPOS>MOLECULE
*****
 50 53 0 0 0
SMALL
GASTEIGER

@<TRIPOS>ATOM
     1 C         -0.365665   -1.393053   1.642101 C.3        1 UNL1     0.1889
     2 C         -0.489234   -0.969852   0.153622 C.3        1 UNL1     0.1342
     3 C         -1.930226   -0.893325   -0.373776 C.3        1 UNL1     0.1174
     4 C         -2.844552   -1.955777   0.241304 C.3        1 UNL1     0.1456
     5 C         -2.690605   -2.05358   1.770061 C.3        1 UNL1     0.2326
     6 O         -1.331657   -2.325065   2.105359 O.3        1 UNL1     -0.3076
     7 O         -3.23181   -0.921114   2.474291 O.3        1 UNL1     -0.4605
     8 C         -3.755298   -1.180596   3.728148 C.ar        1 UNL1     0.1310
     9 C         -4.599584   -2.249166   4.048522 C.ar        1 UNL1     0.0226
     10 C         -5.064887   -2.437252   5.355434 C.ar        1 UNL1     0.1343
     11 C         -4.677607   -1.574118   6.37957 C.ar        1 UNL1     0.1007
     12 C         -3.867933   -0.479798   6.063858 C.ar        1 UNL1     0.1389
     13 C         -3.402346   -0.289384   4.749171 C.ar        1 UNL1     0.0229
     14 C         -5.0715   -1.774163   7.793425 C.2        1 UNL1     0.1740
     15 C         -4.386739   -0.885773   8.790126 C.3        1 UNL1     0.0520
     16 C         -4.280191   0.512076   8.196305 C.3        1 UNL1     0.1322
     17 O         -3.514692   0.491831   6.971285 O.3        1 UNL1     -0.4828
     18 C         -5.621634   1.242013   8.094093 C.ar        1 UNL1     -0.0067
     19 C         -5.718528   2.405386   7.303278 C.ar        1 UNL1     -0.0516
     20 C         -6.9178   3.123522   7.225902 C.ar        1 UNL1     -0.0198
     21 C         -8.022731   2.693715   7.938798 C.ar        1 UNL1     0.1169
     22 C         -7.967951   1.533175   8.69971 C.ar        1 UNL1     -0.0198
     23 C         -6.774094   0.80461   8.762605 C.ar        1 UNL1     -0.0516
     24 O         -9.162452   3.439747   7.868993 O.3        1 UNL1     -0.5068
     25 O         -5.843949   -2.655078   8.161932 O.2        1 UNL1     -0.2917
     26 O         -5.886507   -3.498363   5.601544 O.3        1 UNL1     -0.5058
     27 O         -0.226758   -0.296795   2.531882 O.3        1 UNL1     -0.3648
     28 O         0.212006   -1.933354   -0.654235 O.3        1 UNL1     -0.3841
     29 O         -2.450431   0.430657   -0.237423 O.3        1 UNL1     -0.3863
     30 O         -2.534701   -3.241208   -0.339515 O.3        1 UNL1     -0.3829
     31 H         0.580471   -1.937356   1.735059 H        1 UNL1     0.0937
     32 H         0.0   0.0   0.0 H        1 UNL1     0.0671
     33 H         -1.902125   -1.085808   -1.455386 H        1 UNL1     0.0649
     34 H         -3.889775   -1.736909   -0.00366 H        1 UNL1     0.0683
     35 H         -3.26962   -2.946338   2.037649 H        1 UNL1     0.1085
     36 H         -4.891607   -2.986709   3.309014 H        1 UNL1     0.0691
     37 H         -2.774051   0.57103   4.529113 H        1 UNL1     0.0691
     38 H         -3.395439   -1.308827   8.984743 H        1 UNL1     0.0385
     39 H         -4.952782   -0.895248   9.727827 H        1 UNL1     0.0385
     40 H         -3.674623   1.112562   8.888566 H        1 UNL1     0.0789
     41 H         -4.862884   2.768516   6.741441 H        1 UNL1     0.0623
     42 H         -6.976499   4.025722   6.622078 H        1 UNL1     0.0654
     43 H         -8.831597   1.179296   9.249979 H        1 UNL1     0.0654
     44 H         -6.77013   -0.103113   9.358312 H        1 UNL1     0.0623
     45 H         -8.989005   4.30361   8.276881 H        1 UNL1     0.2921
     46 H         -5.511673   -4.039207   6.314565 H        1 UNL1     0.2922
     47 H         0.518309   0.259233   2.26436 H        1 UNL1     0.2126
     48 H         1.165268   -1.783168   -0.504339 H        1 UNL1     0.2101
     49 H         -2.002858   1.026709   -0.858868 H        1 UNL1     0.2100
     50 H         -2.796438   -3.216628   -1.283232 H        1 UNL1     0.2102
@<TRIPOS>BOND
     1     1     2    1
     2     1     6    1
     3     2     3    1
     4     3     4    1
     5     3    29    1
     6     3    33    1
     7     4     5    1
     8     5     6    1
     9     5     7    1
    10     5    35    1
    11     7     8    1
    12     8     9   ar
    13     8    13   ar
    14     9    10   ar
    15     9    36    1
    16    10    11   ar
    17    10    26    1
    18    11    12   ar
    19    11    14    1
    20    12    13   ar
    21    12    17    1
    22    13    37    1
    23    14    15    1
    24    14    25    2
    25    15    16    1
    26    15    38    1
    27    15    39    1
    28    16    17    1
    29    16    18    1
    30    16    40    1
    31    18    19   ar
    32    18    23   ar
    33    19    20   ar
    34    19    41    1
    35    20    21   ar
    36    20    42    1
    37    21    22   ar
    38    21    24    1
    39    22    23   ar
    40    22    43    1
    41    23    44    1
    42    24    45    1
    43    26    46    1
    44    27    47    1
    45    28    48    1
    46    29    49    1
    47    30    50    1
    48     1    31    1
    49     1    27    1
    50     2    32    1
    51     2    28    1
    52     4    34    1
    53     4    30    1
