@<TRIPOS>MOLECULE
*****
 50 53 0 0 0
SMALL
GASTEIGER

@<TRIPOS>ATOM
     1 C         -0.369116   -1.346844   1.679455 C.3        1 UNL1     0.1889
     2 C         -0.481403   -0.969644   0.177772 C.3        1 UNL1     0.1342
     3 C         -1.917551   -0.9233   -0.366102 C.3        1 UNL1     0.1174
     4 C         -2.82787   -1.975918   0.271418 C.3        1 UNL1     0.1456
     5 C         -2.688765   -2.026373   1.803889 C.3        1 UNL1     0.2326
     6 O         -1.33079   -2.274147   2.160793 O.3        1 UNL1     -0.3076
     7 O         -3.248118   -0.878781   2.468327 O.3        1 UNL1     -0.4605
     8 C         -3.781983   -1.105812   3.724103 C.ar        1 UNL1     0.1310
     9 C         -4.627542   -2.166858   4.065442 C.ar        1 UNL1     0.0226
     10 C         -5.103776   -2.321024   5.372858 C.ar        1 UNL1     0.1343
     11 C         -4.726453   -1.43048   6.377048 C.ar        1 UNL1     0.1007
     12 C         -3.915578   -0.343624   6.039392 C.ar        1 UNL1     0.1389
     13 C         -3.438998   -0.187337   4.724145 C.ar        1 UNL1     0.0229
     14 C         -5.132179   -1.593658   7.792291 C.2        1 UNL1     0.1740
     15 C         -4.457184   -0.678123   8.770927 C.3        1 UNL1     0.0520
     16 C         -4.347435   0.703687   8.141234 C.3        1 UNL1     0.1322
     17 O         -3.571439   0.652235   6.923756 O.3        1 UNL1     -0.4828
     18 C         -5.688936   1.428549   8.008289 C.ar        1 UNL1     -0.0067
     19 C         -6.028655   2.03739   6.78268 C.ar        1 UNL1     -0.0516
     20 C         -7.226226   2.748631   6.64154 C.ar        1 UNL1     -0.0198
     21 C         -8.087148   2.864261   7.718234 C.ar        1 UNL1     0.1169
     22 C         -7.796065   2.247529   8.92809 C.ar        1 UNL1     -0.0198
     23 C         -6.607262   1.52067   9.064029 C.ar        1 UNL1     -0.0516
     24 O         -9.226182   3.596494   7.55441 O.3        1 UNL1     -0.5068
     25 O         -5.906569   -2.465727   8.17739 O.2        1 UNL1     -0.2917
     26 O         -5.926044   -3.376542   5.639957 O.3        1 UNL1     -0.5058
     27 O         -0.24999   -0.223111   2.537254 O.3        1 UNL1     -0.3648
     28 O         0.237406   -1.949864   -0.593712 O.3        1 UNL1     -0.3841
     29 O         -2.451896   0.398923   -0.274798 O.3        1 UNL1     -0.3863
     30 O         -2.499644   -3.275009   -0.267395 O.3        1 UNL1     -0.3829
     31 H         0.581222   -1.878668   1.798197 H        1 UNL1     0.0937
     32 H         0.0   0.0   0.0 H        1 UNL1     0.0671
     33 H         -1.876434   -1.147786   -1.441107 H        1 UNL1     0.0649
     34 H         -3.872575   -1.774905   0.009527 H        1 UNL1     0.0683
     35 H         -3.261861   -2.916444   2.092355 H        1 UNL1     0.1085
     36 H         -4.912222   -2.924173   3.343256 H        1 UNL1     0.0691
     37 H         -2.81   0.66794   4.486751 H        1 UNL1     0.0691
     38 H         -3.467019   -1.094317   8.985128 H        1 UNL1     0.0385
     39 H         -5.031231   -0.66367   9.703687 H        1 UNL1     0.0385
     40 H         -3.748634   1.323235   8.822495 H        1 UNL1     0.0789
     41 H         -5.365497   1.968865   5.925256 H        1 UNL1     0.0623
     42 H         -7.471317   3.223699   5.694833 H        1 UNL1     0.0654
     43 H         -8.4703   2.319051   9.773194 H        1 UNL1     0.0654
     44 H         -6.416892   1.042953   10.020267 H        1 UNL1     0.0623
     45 H         -8.975537   4.51364   7.35759 H        1 UNL1     0.2921
     46 H         -5.545416   -3.910229   6.355298 H        1 UNL1     0.2922
     47 H         0.499147   0.326239   2.267313 H        1 UNL1     0.2126
     48 H         1.176235   -1.875658   -0.335205 H        1 UNL1     0.2101
     49 H         -2.003473   0.980614   -0.909106 H        1 UNL1     0.2100
     50 H         -2.730922   -3.273791   -1.219352 H        1 UNL1     0.2102
@<TRIPOS>BOND
     1     1     2    1
     2     1     6    1
     3     2     3    1
     4     3     4    1
     5     3    29    1
     6     3    33    1
     7     4     5    1
     8     5     6    1
     9     5     7    1
    10     5    35    1
    11     7     8    1
    12     8     9   ar
    13     8    13   ar
    14     9    10   ar
    15     9    36    1
    16    10    11   ar
    17    10    26    1
    18    11    12   ar
    19    11    14    1
    20    12    13   ar
    21    12    17    1
    22    13    37    1
    23    14    15    1
    24    14    25    2
    25    15    16    1
    26    15    38    1
    27    15    39    1
    28    16    17    1
    29    16    18    1
    30    16    40    1
    31    18    19   ar
    32    18    23   ar
    33    19    20   ar
    34    19    41    1
    35    20    21   ar
    36    20    42    1
    37    21    22   ar
    38    21    24    1
    39    22    23   ar
    40    22    43    1
    41    23    44    1
    42    24    45    1
    43    26    46    1
    44    27    47    1
    45    28    48    1
    46    29    49    1
    47    30    50    1
    48     1    31    1
    49     1    27    1
    50     2    32    1
    51     2    28    1
    52     4    34    1
    53     4    30    1
