@<TRIPOS>MOLECULE
*****
 50 53 0 0 0
SMALL
GASTEIGER

@<TRIPOS>ATOM
     1 C         0.247779   -1.759251   1.270609 C.3        1 UNL1     0.1889
     2 C         -0.330782   -1.045839   0.019109 C.3        1 UNL1     0.1342
     3 C         -1.862465   -1.089087   -0.092878 C.3        1 UNL1     0.1174
     4 C         -2.459921   -2.393699   0.440179 C.3        1 UNL1     0.1456
     5 C         -1.872153   -2.797911   1.804549 C.3        1 UNL1     0.2326
     6 O         -0.454334   -2.913416   1.708029 O.3        1 UNL1     -0.3076
     7 O         -2.298449   -1.949746   2.886311 O.3        1 UNL1     -0.4605
     8 C         -2.408521   -2.556007   4.124802 C.ar        1 UNL1     0.1310
     9 C         -3.021031   -3.789363   4.371711 C.ar        1 UNL1     0.0226
     10 C         -3.066837   -4.329141   5.662619 C.ar        1 UNL1     0.1343
     11 C         -2.479702   -3.659128   6.735091 C.ar        1 UNL1     0.1007
     12 C         -1.901169   -2.407514   6.508053 C.ar        1 UNL1     0.1389
     13 C         -1.857568   -1.863758   5.210418 C.ar        1 UNL1     0.0229
     14 C         -2.425304   -4.222303   8.104042 C.2        1 UNL1     0.1740
     15 C         -1.565164   -3.474538   9.080032 C.3        1 UNL1     0.0520
     16 C         -1.765069   -1.982311   8.85364 C.3        1 UNL1     0.1322
     17 O         -1.390377   -1.613062   7.508155 O.3        1 UNL1     -0.4828
     18 C         -3.139528   -1.471232   9.292258 C.ar        1 UNL1     -0.0067
     19 C         -3.88832   -0.658962   8.41605 C.ar        1 UNL1     -0.0516
     20 C         -5.127642   -0.135972   8.804027 C.ar        1 UNL1     -0.0198
     21 C         -5.624586   -0.411258   10.065411 C.ar        1 UNL1     0.1169
     22 C         -4.92606   -1.235276   10.938278 C.ar        1 UNL1     -0.0198
     23 C         -3.695315   -1.773462   10.543719 C.ar        1 UNL1     -0.0516
     24 O         -6.817121   0.146498   10.422017 O.3        1 UNL1     -0.5068
     25 O         -2.972683   -5.27398   8.424725 O.2        1 UNL1     -0.2917
     26 O         -3.680042   -5.535535   5.836335 O.3        1 UNL1     -0.5058
     27 O         0.526522   -0.876876   2.346017 O.3        1 UNL1     -0.3648
     28 O         0.202852   -1.682898   -1.156518 O.3        1 UNL1     -0.3841
     29 O         -2.447321   0.071173   0.501996 O.3        1 UNL1     -0.3863
     30 O         -2.20499   -3.453416   -0.507291 O.3        1 UNL1     -0.3829
     31 H         1.229272   -2.150777   0.98172 H        1 UNL1     0.0937
     32 H         0.0   0.0   0.0 H        1 UNL1     0.0671
     33 H         -2.122466   -1.032811   -1.159157 H        1 UNL1     0.0649
     34 H         -3.547738   -2.298014   0.529053 H        1 UNL1     0.0683
     35 H         -2.263854   -3.809014   1.972234 H        1 UNL1     0.1085
     36 H         -3.446252   -4.385192   3.571526 H        1 UNL1     0.0691
     37 H         -1.402422   -0.887128   5.060319 H        1 UNL1     0.0691
     38 H         -0.525554   -3.766094   8.896368 H        1 UNL1     0.0385
     39 H         -1.830712   -3.77805   10.098434 H        1 UNL1     0.0385
     40 H         -1.042361   -1.458147   9.493535 H        1 UNL1     0.0789
     41 H         -3.51586   -0.42073   7.423997 H        1 UNL1     0.0623
     42 H         -5.690018   0.498819   8.123744 H        1 UNL1     0.0654
     43 H         -5.313048   -1.46957   11.922786 H        1 UNL1     0.0654
     44 H         -3.181689   -2.421774   11.247086 H        1 UNL1     0.0623
     45 H         -6.726488   1.112566   10.387159 H        1 UNL1     0.2921
     46 H         -3.058341   -6.158653   6.244533 H        1 UNL1     0.2922
     47 H         1.125524   -0.174656   2.056285 H        1 UNL1     0.2126
     48 H         1.171974   -1.567482   -1.121673 H        1 UNL1     0.2101
     49 H         -2.245231   0.854407   -0.034192 H        1 UNL1     0.2100
     50 H         -2.701249   -3.250601   -1.327234 H        1 UNL1     0.2102
@<TRIPOS>BOND
     1     1     2    1
     2     1     6    1
     3     2     3    1
     4     3     4    1
     5     3    29    1
     6     3    33    1
     7     4     5    1
     8     5     6    1
     9     5     7    1
    10     5    35    1
    11     7     8    1
    12     8     9   ar
    13     8    13   ar
    14     9    10   ar
    15     9    36    1
    16    10    11   ar
    17    10    26    1
    18    11    12   ar
    19    11    14    1
    20    12    13   ar
    21    12    17    1
    22    13    37    1
    23    14    15    1
    24    14    25    2
    25    15    16    1
    26    15    38    1
    27    15    39    1
    28    16    17    1
    29    16    18    1
    30    16    40    1
    31    18    19   ar
    32    18    23   ar
    33    19    20   ar
    34    19    41    1
    35    20    21   ar
    36    20    42    1
    37    21    22   ar
    38    21    24    1
    39    22    23   ar
    40    22    43    1
    41    23    44    1
    42    24    45    1
    43    26    46    1
    44    27    47    1
    45    28    48    1
    46    29    49    1
    47    30    50    1
    48     1    31    1
    49     1    27    1
    50     2    32    1
    51     2    28    1
    52     4    34    1
    53     4    30    1
