@<TRIPOS>MOLECULE
*****
 50 53 0 0 0
SMALL
GASTEIGER

@<TRIPOS>ATOM
     1 C         0.668661   -1.853576   0.942313 C.3        1 UNL1     0.1889
     2 C         -0.0884   -0.498642   0.973193 C.3        1 UNL1     0.1342
     3 C         0.371696   0.468019   2.075166 C.3        1 UNL1     0.1174
     4 C         0.78952   -0.251965   3.359752 C.3        1 UNL1     0.1456
     5 C         1.712603   -1.454053   3.089074 C.3        1 UNL1     0.2326
     6 O         1.072139   -2.36878   2.202537 O.3        1 UNL1     -0.3076
     7 O         3.032597   -1.07723   2.656708 O.3        1 UNL1     -0.4605
     8 C         4.07881   -1.523278   3.444114 C.ar        1 UNL1     0.1310
     9 C         4.780924   -0.748542   4.373695 C.ar        1 UNL1     0.0226
     10 C         5.817231   -1.297872   5.13803 C.ar        1 UNL1     0.1343
     11 C         6.161078   -2.642774   5.008224 C.ar        1 UNL1     0.1007
     12 C         5.494636   -3.416117   4.053981 C.ar        1 UNL1     0.1389
     13 C         4.454448   -2.86286   3.283692 C.ar        1 UNL1     0.0229
     14 C         7.190719   -3.295565   5.849567 C.2        1 UNL1     0.1740
     15 C         7.27444   -4.789077   5.731416 C.3        1 UNL1     0.0520
     16 C         7.10437   -5.166761   4.26636 C.3        1 UNL1     0.1322
     17 O         5.824332   -4.720422   3.767005 O.3        1 UNL1     -0.4828
     18 C         8.297279   -4.78136   3.388205 C.ar        1 UNL1     -0.0067
     19 C         9.280083   -3.908849   3.899123 C.ar        1 UNL1     -0.0516
     20 C         10.358722   -3.498807   3.106428 C.ar        1 UNL1     -0.0198
     21 C         10.461694   -3.947385   1.80182 C.ar        1 UNL1     0.1169
     22 C         9.52778   -4.833668   1.281102 C.ar        1 UNL1     -0.0198
     23 C         8.459065   -5.258423   2.07953 C.ar        1 UNL1     -0.0516
     24 O         11.50522   -3.496774   1.047894 O.3        1 UNL1     -0.5068
     25 O         7.887747   -2.688224   6.65813 O.2        1 UNL1     -0.2917
     26 O         6.463109   -0.48829   6.026288 O.3        1 UNL1     -0.5058
     27 O         1.727782   -1.888042   -0.001011 O.3        1 UNL1     -0.3648
     28 O         -1.486836   -0.762389   1.191179 O.3        1 UNL1     -0.3841
     29 O         1.379939   1.353741   1.584172 O.3        1 UNL1     -0.3863
     30 O         -0.391819   -0.719368   4.046529 O.3        1 UNL1     -0.3829
     31 H         -0.04316   -2.601367   0.575982 H        1 UNL1     0.0937
     32 H         0.0   0.0   0.0 H        1 UNL1     0.0671
     33 H         -0.480779   1.111332   2.334309 H        1 UNL1     0.0649
     34 H         1.295824   0.448373   4.033239 H        1 UNL1     0.0683
     35 H         1.788493   -1.953845   4.062895 H        1 UNL1     0.1085
     36 H         4.524523   0.288357   4.56136 H        1 UNL1     0.0691
     37 H         3.95201   -3.48574   2.546759 H        1 UNL1     0.0691
     38 H         6.473325   -5.215236   6.344711 H        1 UNL1     0.0385
     39 H         8.233472   -5.128079   6.137758 H        1 UNL1     0.0385
     40 H         7.050602   -6.262828   4.218771 H        1 UNL1     0.0789
     41 H         9.216955   -3.535431   4.917074 H        1 UNL1     0.0623
     42 H         11.103667   -2.816327   3.508036 H        1 UNL1     0.0654
     43 H         9.607056   -5.203009   0.265616 H        1 UNL1     0.0654
     44 H         7.753813   -5.959512   1.643712 H        1 UNL1     0.0623
     45 H         12.145627   -4.219615   0.947412 H        1 UNL1     0.2921
     46 H         7.354287   -0.834801   6.191042 H        1 UNL1     0.2922
     47 H         1.509353   -2.487878   -0.727885 H        1 UNL1     0.2126
     48 H         -1.657688   -1.66256   0.853194 H        1 UNL1     0.2101
     49 H         1.994568   0.868692   1.010802 H        1 UNL1     0.2100
     50 H         -0.686566   -0.010989   4.655657 H        1 UNL1     0.2102
@<TRIPOS>BOND
     1     1     2    1
     2     1     6    1
     3     2     3    1
     4     3     4    1
     5     3    29    1
     6     3    33    1
     7     4     5    1
     8     5     6    1
     9     5     7    1
    10     5    35    1
    11     7     8    1
    12     8     9   ar
    13     8    13   ar
    14     9    10   ar
    15     9    36    1
    16    10    11   ar
    17    10    26    1
    18    11    12   ar
    19    11    14    1
    20    12    13   ar
    21    12    17    1
    22    13    37    1
    23    14    15    1
    24    14    25    2
    25    15    16    1
    26    15    38    1
    27    15    39    1
    28    16    17    1
    29    16    18    1
    30    16    40    1
    31    18    19   ar
    32    18    23   ar
    33    19    20   ar
    34    19    41    1
    35    20    21   ar
    36    20    42    1
    37    21    22   ar
    38    21    24    1
    39    22    23   ar
    40    22    43    1
    41    23    44    1
    42    24    45    1
    43    26    46    1
    44    27    47    1
    45    28    48    1
    46    29    49    1
    47    30    50    1
    48     1    31    1
    49     1    27    1
    50     2    32    1
    51     2    28    1
    52     4    34    1
    53     4    30    1
