@<TRIPOS>MOLECULE
*****
 50 53 0 0 0
SMALL
GASTEIGER

@<TRIPOS>ATOM
     1 C         0.077288   -1.599722   -1.485167 C.3        1 UNL1     0.1889
     2 C         0.2587   -1.06542   -0.038947 C.3        1 UNL1     0.1342
     3 C         1.66623   -1.260987   0.545071 C.3        1 UNL1     0.1174
     4 C         2.328549   -2.558693   0.075593 C.3        1 UNL1     0.1456
     5 C         2.192725   -2.77494   -1.44268 C.3        1 UNL1     0.2326
     6 O         0.816034   -2.767124   -1.813529 O.3        1 UNL1     -0.3076
     7 O         2.994482   -1.87086   -2.224439 O.3        1 UNL1     -0.4605
     8 C         2.862534   -1.976026   -3.597413 C.ar        1 UNL1     0.1310
     9 C         1.717929   -1.642324   -4.329412 C.ar        1 UNL1     0.0226
     10 C         1.688098   -1.76819   -5.723389 C.ar        1 UNL1     0.1343
     11 C         2.811315   -2.208692   -6.422089 C.ar        1 UNL1     0.1007
     12 C         3.946466   -2.58388   -5.698591 C.ar        1 UNL1     0.1389
     13 C         3.975316   -2.459738   -4.296739 C.ar        1 UNL1     0.0229
     14 C         2.862867   -2.280777   -7.900703 C.2        1 UNL1     0.1740
     15 C         4.2141   -2.559979   -8.49042 C.3        1 UNL1     0.0520
     16 C         4.908434   -3.606553   -7.629874 C.3        1 UNL1     0.1322
     17 O         5.068888   -3.131912   -6.274869 O.3        1 UNL1     -0.4828
     18 C         4.294584   -5.00401   -7.744009 C.ar        1 UNL1     -0.0067
     19 C         3.084502   -5.173513   -8.447701 C.ar        1 UNL1     -0.0516
     20 C         2.471749   -6.429536   -8.530796 C.ar        1 UNL1     -0.0198
     21 C         3.053945   -7.519996   -7.909691 C.ar        1 UNL1     0.1169
     22 C         4.262543   -7.391346   -7.237696 C.ar        1 UNL1     -0.0198
     23 C         4.884963   -6.139117   -7.170091 C.ar        1 UNL1     -0.0516
     24 O         2.408822   -8.719688   -7.980101 O.3        1 UNL1     -0.5068
     25 O         1.89623   -2.05159   -8.622903 O.2        1 UNL1     -0.2917
     26 O         0.540499   -1.427081   -6.377794 O.3        1 UNL1     -0.5058
     27 O         0.213201   -0.596957   -2.47954 O.3        1 UNL1     -0.3648
     28 O         -0.662762   -1.759246   0.822574 O.3        1 UNL1     -0.3841
     29 O         2.477723   -0.108631   0.309085 O.3        1 UNL1     -0.3863
     30 O         1.720037   -3.675557   0.759712 O.3        1 UNL1     -0.3829
     31 H         -0.965554   -1.924253   -1.570249 H        1 UNL1     0.0937
     32 H         0.0   0.0   0.0 H        1 UNL1     0.0671
     33 H         1.569286   -1.330818   1.63752 H        1 UNL1     0.0649
     34 H         3.390019   -2.556278   0.347026 H        1 UNL1     0.0683
     35 H         2.559103   -3.797439   -1.598057 H        1 UNL1     0.1085
     36 H         0.831511   -1.241247   -3.850328 H        1 UNL1     0.0691
     37 H         4.870818   -2.759611   -3.756697 H        1 UNL1     0.0691
     38 H         4.773917   -1.618651   -8.496047 H        1 UNL1     0.0385
     39 H         4.091719   -2.891364   -9.527235 H        1 UNL1     0.0385
     40 H         5.93451   -3.708069   -8.008532 H        1 UNL1     0.0789
     41 H         2.602795   -4.33145   -8.936105 H        1 UNL1     0.0623
     42 H         1.532629   -6.54504   -9.066262 H        1 UNL1     0.0654
     43 H         4.734843   -8.241721   -6.760512 H        1 UNL1     0.0654
     44 H         5.833772   -6.077195   -6.645903 H        1 UNL1     0.0623
     45 H         2.681111   -9.259387   -7.220298 H        1 UNL1     0.2921
     46 H         0.68254   -1.492289   -7.335387 H        1 UNL1     0.2922
     47 H         -0.63135   -0.454941   -2.929458 H        1 UNL1     0.2126
     48 H         -0.144569   -2.080562   1.585439 H        1 UNL1     0.2101
     49 H         3.414143   -0.334788   0.426411 H        1 UNL1     0.2100
     50 H         2.169516   -4.493201   0.461151 H        1 UNL1     0.2102
@<TRIPOS>BOND
     1     1     2    1
     2     1     6    1
     3     2     3    1
     4     3     4    1
     5     3    29    1
     6     3    33    1
     7     4     5    1
     8     5     6    1
     9     5     7    1
    10     5    35    1
    11     7     8    1
    12     8     9   ar
    13     8    13   ar
    14     9    10   ar
    15     9    36    1
    16    10    11   ar
    17    10    26    1
    18    11    12   ar
    19    11    14    1
    20    12    13   ar
    21    12    17    1
    22    13    37    1
    23    14    15    1
    24    14    25    2
    25    15    16    1
    26    15    38    1
    27    15    39    1
    28    16    17    1
    29    16    18    1
    30    16    40    1
    31    18    19   ar
    32    18    23   ar
    33    19    20   ar
    34    19    41    1
    35    20    21   ar
    36    20    42    1
    37    21    22   ar
    38    21    24    1
    39    22    23   ar
    40    22    43    1
    41    23    44    1
    42    24    45    1
    43    26    46    1
    44    27    47    1
    45    28    48    1
    46    29    49    1
    47    30    50    1
    48     1    31    1
    49     1    27    1
    50     2    32    1
    51     2    28    1
    52     4    34    1
    53     4    30    1
