@<TRIPOS>MOLECULE
*****
 50 53 0 0 0
SMALL
GASTEIGER

@<TRIPOS>ATOM
     1 C         0.082666   -0.394678   2.146672 C.3        1 UNL1     0.1889
     2 C         -0.699162   -0.089779   0.840639 C.3        1 UNL1     0.1342
     3 C         -1.577771   1.169261   0.898319 C.3        1 UNL1     0.1174
     4 C         -2.194637   1.399714   2.280161 C.3        1 UNL1     0.1456
     5 C         -1.169869   1.24019   3.418039 C.3        1 UNL1     0.2326
     6 O         -0.574802   -0.054104   3.35834 O.3        1 UNL1     -0.3076
     7 O         -0.203508   2.305312   3.472649 O.3        1 UNL1     -0.4605
     8 C         1.005579   1.996845   4.069711 C.ar        1 UNL1     0.1310
     9 C         2.156413   2.79124   4.027063 C.ar        1 UNL1     0.0226
     10 C         3.331089   2.399145   4.67998 C.ar        1 UNL1     0.1343
     11 C         3.376247   1.213414   5.411993 C.ar        1 UNL1     0.1007
     12 C         2.245993   0.391795   5.427846 C.ar        1 UNL1     0.1389
     13 C         1.065808   0.784988   4.769064 C.ar        1 UNL1     0.0229
     14 C         4.564242   0.79206   6.189993 C.2        1 UNL1     0.1740
     15 C         4.363326   -0.389196   7.093218 C.3        1 UNL1     0.0520
     16 C         3.500061   -1.410672   6.365677 C.3        1 UNL1     0.1322
     17 O         2.214189   -0.84645   6.026181 O.3        1 UNL1     -0.4828
     18 C         4.214562   -2.105524   5.204043 C.ar        1 UNL1     -0.0067
     19 C         4.98973   -1.338948   4.309789 C.ar        1 UNL1     -0.0516
     20 C         5.617505   -1.935618   3.209859 C.ar        1 UNL1     -0.0198
     21 C         5.472098   -3.293617   2.989576 C.ar        1 UNL1     0.1169
     22 C         4.742707   -4.08072   3.87122 C.ar        1 UNL1     -0.0198
     23 C         4.130058   -3.487456   4.981515 C.ar        1 UNL1     -0.0516
     24 O         6.066813   -3.833002   1.886952 O.3        1 UNL1     -0.5068
     25 O         5.631449   1.399827   6.176818 O.2        1 UNL1     -0.2917
     26 O         4.418994   3.218552   4.598616 O.3        1 UNL1     -0.5058
     27 O         1.421174   0.075216   2.127096 O.3        1 UNL1     -0.3648
     28 O         -1.5655   -1.20409   0.556958 O.3        1 UNL1     -0.3841
     29 O         -0.86376   2.308455   0.414007 O.3        1 UNL1     -0.3863
     30 O         -3.266096   0.453185   2.484481 O.3        1 UNL1     -0.3829
     31 H         0.180207   -1.484207   2.205761 H        1 UNL1     0.0937
     32 H         0.0   0.0   0.0 H        1 UNL1     0.0671
     33 H         -2.412258   1.028252   0.197271 H        1 UNL1     0.0649
     34 H         -2.637361   2.400676   2.32987 H        1 UNL1     0.0683
     35 H         -1.780035   1.268975   4.329493 H        1 UNL1     0.1085
     36 H         2.16856   3.750736   3.521751 H        1 UNL1     0.0691
     37 H         0.199923   0.126938   4.795624 H        1 UNL1     0.0691
     38 H         3.869224   -0.030583   8.002496 H        1 UNL1     0.0385
     39 H         5.340501   -0.797285   7.373168 H        1 UNL1     0.0385
     40 H         3.268632   -2.209002   7.08375 H        1 UNL1     0.0789
     41 H         5.111734   -0.269608   4.45566 H        1 UNL1     0.0623
     42 H         6.202781   -1.331743   2.520803 H        1 UNL1     0.0654
     43 H         4.634846   -5.147654   3.716538 H        1 UNL1     0.0654
     44 H         3.576654   -4.134311   5.655435 H        1 UNL1     0.0623
     45 H         5.820951   -3.299412   1.113938 H        1 UNL1     0.2921
     46 H         4.516257   3.71058   5.429194 H        1 UNL1     0.2922
     47 H         1.904641   -0.259061   2.895457 H        1 UNL1     0.2126
     48 H         -2.479898   -0.889002   0.69234 H        1 UNL1     0.2101
     49 H         -1.351597   3.119457   0.62868 H        1 UNL1     0.2100
     50 H         -3.15338   0.057474   3.373537 H        1 UNL1     0.2102
@<TRIPOS>BOND
     1     1     2    1
     2     1     6    1
     3     2     3    1
     4     3     4    1
     5     3    29    1
     6     3    33    1
     7     4     5    1
     8     5     6    1
     9     5     7    1
    10     5    35    1
    11     7     8    1
    12     8     9   ar
    13     8    13   ar
    14     9    10   ar
    15     9    36    1
    16    10    11   ar
    17    10    26    1
    18    11    12   ar
    19    11    14    1
    20    12    13   ar
    21    12    17    1
    22    13    37    1
    23    14    15    1
    24    14    25    2
    25    15    16    1
    26    15    38    1
    27    15    39    1
    28    16    17    1
    29    16    18    1
    30    16    40    1
    31    18    19   ar
    32    18    23   ar
    33    19    20   ar
    34    19    41    1
    35    20    21   ar
    36    20    42    1
    37    21    22   ar
    38    21    24    1
    39    22    23   ar
    40    22    43    1
    41    23    44    1
    42    24    45    1
    43    26    46    1
    44    27    47    1
    45    28    48    1
    46    29    49    1
    47    30    50    1
    48     1    31    1
    49     1    27    1
    50     2    32    1
    51     2    28    1
    52     4    34    1
    53     4    30    1
