@<TRIPOS>MOLECULE
*****
 50 53 0 0 0
SMALL
GASTEIGER

@<TRIPOS>ATOM
     1 C         0.066778   -1.662149   1.415488 C.3        1 UNL1     0.1889
     2 C         -0.638995   -0.434917   0.778521 C.3        1 UNL1     0.1342
     3 C         -1.034701   0.665731   1.774742 C.3        1 UNL1     0.1174
     4 C         -1.457053   0.109475   3.136842 C.3        1 UNL1     0.1456
     5 C         -0.483509   -0.959759   3.665343 C.3        1 UNL1     0.2326
     6 O         -0.366161   -2.020264   2.719601 O.3        1 UNL1     -0.3076
     7 O         0.787801   -0.424593   4.076059 O.3        1 UNL1     -0.4605
     8 C         1.807572   -1.344366   4.242236 C.ar        1 UNL1     0.1310
     9 C         2.666058   -1.412062   5.344832 C.ar        1 UNL1     0.0226
     10 C         3.660239   -2.394132   5.428779 C.ar        1 UNL1     0.1343
     11 C         3.804726   -3.347993   4.422244 C.ar        1 UNL1     0.1007
     12 C         2.980191   -3.265531   3.297021 C.ar        1 UNL1     0.1389
     13 C         1.98236   -2.276355   3.211622 C.ar        1 UNL1     0.0229
     14 C         4.782581   -4.457974   4.499032 C.2        1 UNL1     0.1740
     15 C         4.649964   -5.514405   3.441717 C.3        1 UNL1     0.0520
     16 C         4.340101   -4.832973   2.115975 C.3        1 UNL1     0.1322
     17 O         3.10679   -4.085303   2.199654 O.3        1 UNL1     -0.4828
     18 C         5.519432   -4.048431   1.535977 C.ar        1 UNL1     -0.0067
     19 C         5.570962   -2.649552   1.705378 C.ar        1 UNL1     -0.0516
     20 C         6.61057   -1.896199   1.147135 C.ar        1 UNL1     -0.0198
     21 C         7.598445   -2.527589   0.41278 C.ar        1 UNL1     0.1169
     22 C         7.593193   -3.907613   0.256744 C.ar        1 UNL1     -0.0198
     23 C         6.563725   -4.663325   0.830461 C.ar        1 UNL1     -0.0516
     24 O         8.57423   -1.756818   -0.147716 O.3        1 UNL1     -0.5068
     25 O         5.605345   -4.572834   5.403659 O.2        1 UNL1     -0.2917
     26 O         4.465485   -2.404831   6.530163 O.3        1 UNL1     -0.5058
     27 O         1.481881   -1.607905   1.329888 O.3        1 UNL1     -0.3648
     28 O         -1.84611   -0.885519   0.136232 O.3        1 UNL1     -0.3841
     29 O         -0.006143   1.652741   1.874794 O.3        1 UNL1     -0.3863
     30 O         -2.772124   -0.476308   3.022229 O.3        1 UNL1     -0.3829
     31 H         -0.207053   -2.531076   0.807161 H        1 UNL1     0.0937
     32 H         0.0   0.0   0.0 H        1 UNL1     0.0671
     33 H         -1.906287   1.193333   1.362803 H        1 UNL1     0.0649
     34 H         -1.531186   0.923396   3.866526 H        1 UNL1     0.0683
     35 H         -0.994732   -1.371553   4.544523 H        1 UNL1     0.1085
     36 H         2.568587   -0.734342   6.185852 H        1 UNL1     0.0691
     37 H         1.354114   -2.232856   2.324544 H        1 UNL1     0.0691
     38 H         3.836076   -6.183013   3.741846 H        1 UNL1     0.0385
     39 H         5.575307   -6.099053   3.400422 H        1 UNL1     0.0385
     40 H         4.131286   -5.626137   1.385354 H        1 UNL1     0.0789
     41 H         4.802595   -2.129248   2.269777 H        1 UNL1     0.0623
     42 H         6.632734   -0.816738   1.274745 H        1 UNL1     0.0654
     43 H         8.370035   -4.413922   -0.303682 H        1 UNL1     0.0654
     44 H         6.596855   -5.740384   0.69746 H        1 UNL1     0.0623
     45 H         8.749323   -2.087324   -1.043721 H        1 UNL1     0.2921
     46 H         5.343108   -2.066093   6.292578 H        1 UNL1     0.2922
     47 H         1.875459   -2.34188   1.822064 H        1 UNL1     0.2126
     48 H         -2.531596   -0.217079   0.328659 H        1 UNL1     0.2101
     49 H         -0.350747   2.51747   1.600411 H        1 UNL1     0.2100
     50 H         -3.115364   -0.626191   3.927455 H        1 UNL1     0.2102
@<TRIPOS>BOND
     1     1     2    1
     2     1     6    1
     3     2     3    1
     4     3     4    1
     5     3    29    1
     6     3    33    1
     7     4     5    1
     8     5     6    1
     9     5     7    1
    10     5    35    1
    11     7     8    1
    12     8     9   ar
    13     8    13   ar
    14     9    10   ar
    15     9    36    1
    16    10    11   ar
    17    10    26    1
    18    11    12   ar
    19    11    14    1
    20    12    13   ar
    21    12    17    1
    22    13    37    1
    23    14    15    1
    24    14    25    2
    25    15    16    1
    26    15    38    1
    27    15    39    1
    28    16    17    1
    29    16    18    1
    30    16    40    1
    31    18    19   ar
    32    18    23   ar
    33    19    20   ar
    34    19    41    1
    35    20    21   ar
    36    20    42    1
    37    21    22   ar
    38    21    24    1
    39    22    23   ar
    40    22    43    1
    41    23    44    1
    42    24    45    1
    43    26    46    1
    44    27    47    1
    45    28    48    1
    46    29    49    1
    47    30    50    1
    48     1    31    1
    49     1    27    1
    50     2    32    1
    51     2    28    1
    52     4    34    1
    53     4    30    1
