@<TRIPOS>MOLECULE
*****
 50 53 0 0 0
SMALL
GASTEIGER

@<TRIPOS>ATOM
     1 C         -0.331768   -1.327877   1.702198 C.3        1 UNL1     0.1889
     2 C         -0.462418   -0.975352   0.196012 C.3        1 UNL1     0.1342
     3 C         -1.903314   -0.962975   -0.337026 C.3        1 UNL1     0.1174
     4 C         -2.789524   -2.022074   0.323322 C.3        1 UNL1     0.1456
     5 C         -2.637731   -2.047   1.855217 C.3        1 UNL1     0.2326
     6 O         -1.272791   -2.264963   2.20493 O.3        1 UNL1     -0.3076
     7 O         -3.212598   -0.899786   2.506944 O.3        1 UNL1     -0.4605
     8 C         -3.721973   -1.114866   3.774937 C.ar        1 UNL1     0.1310
     9 C         -4.538091   -2.187823   4.149125 C.ar        1 UNL1     0.0226
     10 C         -4.990709   -2.327811   5.466487 C.ar        1 UNL1     0.1343
     11 C         -4.618266   -1.410273   6.44794 C.ar        1 UNL1     0.1007
     12 C         -3.837345   -0.31222   6.077499 C.ar        1 UNL1     0.1389
     13 C         -3.384546   -0.170252   4.752263 C.ar        1 UNL1     0.0229
     14 C         -4.998554   -1.555663   7.872158 C.2        1 UNL1     0.1740
     15 C         -4.329502   -0.607006   8.82293 C.3        1 UNL1     0.0520
     16 C         -4.260555   0.764757   8.166066 C.3        1 UNL1     0.1322
     17 O         -3.502276   0.707584   6.937728 O.3        1 UNL1     -0.4828
     18 C         -5.619926   1.45695   8.04076 C.ar        1 UNL1     -0.0067
     19 C         -5.999406   2.019292   6.804645 C.ar        1 UNL1     -0.0516
     20 C         -7.214803   2.700609   6.668329 C.ar        1 UNL1     -0.0198
     21 C         -8.054242   2.832491   7.760015 C.ar        1 UNL1     0.1169
     22 C         -7.723549   2.26075   8.981732 C.ar        1 UNL1     -0.0198
     23 C         -6.516694   1.563479   9.113538 C.ar        1 UNL1     -0.0516
     24 O         -9.212076   3.53528   7.599054 O.3        1 UNL1     -0.5068
     25 O         -5.747121   -2.437313   8.28547 O.2        1 UNL1     -0.2917
     26 O         -5.784803   -3.396127   5.765989 O.3        1 UNL1     -0.5058
     27 O         -0.226366   -0.189429   2.542205 O.3        1 UNL1     -0.3648
     28 O         0.268025   -1.953985   -0.566508 O.3        1 UNL1     -0.3841
     29 O         -2.460748   0.350662   -0.261148 O.3        1 UNL1     -0.3863
     30 O         -2.442035   -3.323009   -0.198702 O.3        1 UNL1     -0.3829
     31 H         0.628913   -1.840708   1.82126 H        1 UNL1     0.0937
     32 H         0.0   0.0   0.0 H        1 UNL1     0.0671
     33 H         -1.866429   -1.202808   -1.408865 H        1 UNL1     0.0649
     34 H         -3.839678   -1.843807   0.066806 H        1 UNL1     0.0683
     35 H         -3.192409   -2.942784   2.161453 H        1 UNL1     0.1085
     36 H         -4.816622   -2.964797   3.445668 H        1 UNL1     0.0691
     37 H         -2.778685   0.69417   4.489205 H        1 UNL1     0.0691
     38 H         -3.327052   -0.996943   9.029255 H        1 UNL1     0.0385
     39 H         -4.889419   -0.587704   9.764152 H        1 UNL1     0.0385
     40 H         -3.665537   1.41024   8.826238 H        1 UNL1     0.0789
     41 H         -5.353852   1.937341   5.935051 H        1 UNL1     0.0623
     42 H         -7.490717   3.140117   5.712968 H        1 UNL1     0.0654
     43 H         -8.380509   2.345073   9.839172 H        1 UNL1     0.0654
     44 H         -6.29521   1.120488   10.079741 H        1 UNL1     0.0623
     45 H         -8.986236   4.442767   7.337939 H        1 UNL1     0.2921
     46 H         -5.380674   -3.908376   6.484106 H        1 UNL1     0.2922
     47 H         0.516577   0.364239   2.264089 H        1 UNL1     0.2126
     48 H         1.200978   -1.888078   -0.285462 H        1 UNL1     0.2101
     49 H         -2.021963   0.932859   -0.901701 H        1 UNL1     0.2100
     50 H         -2.675405   -3.338316   -1.150025 H        1 UNL1     0.2102
@<TRIPOS>BOND
     1     1     2    1
     2     1     6    1
     3     2     3    1
     4     3     4    1
     5     3    29    1
     6     3    33    1
     7     4     5    1
     8     5     6    1
     9     5     7    1
    10     5    35    1
    11     7     8    1
    12     8     9   ar
    13     8    13   ar
    14     9    10   ar
    15     9    36    1
    16    10    11   ar
    17    10    26    1
    18    11    12   ar
    19    11    14    1
    20    12    13   ar
    21    12    17    1
    22    13    37    1
    23    14    15    1
    24    14    25    2
    25    15    16    1
    26    15    38    1
    27    15    39    1
    28    16    17    1
    29    16    18    1
    30    16    40    1
    31    18    19   ar
    32    18    23   ar
    33    19    20   ar
    34    19    41    1
    35    20    21   ar
    36    20    42    1
    37    21    22   ar
    38    21    24    1
    39    22    23   ar
    40    22    43    1
    41    23    44    1
    42    24    45    1
    43    26    46    1
    44    27    47    1
    45    28    48    1
    46    29    49    1
    47    30    50    1
    48     1    31    1
    49     1    27    1
    50     2    32    1
    51     2    28    1
    52     4    34    1
    53     4    30    1
