@<TRIPOS>MOLECULE
*****
 50 53 0 0 0
SMALL
GASTEIGER

@<TRIPOS>ATOM
     1 C         -0.608871   -1.763745   -1.135466 C.3        1 UNL1     0.1889
     2 C         -0.824036   -0.724237   -0.00274 C.3        1 UNL1     0.1342
     3 C         -0.965439   -1.327732   1.403057 C.3        1 UNL1     0.1174
     4 C         -1.686815   -2.677814   1.399547 C.3        1 UNL1     0.1456
     5 C         -1.15783   -3.626815   0.308706 C.3        1 UNL1     0.2326
     6 O         -1.27233   -3.008384   -0.970865 O.3        1 UNL1     -0.3076
     7 O         0.163512   -4.1297   0.577935 O.3        1 UNL1     -0.4605
     8 C         0.715311   -4.938091   -0.399587 C.ar        1 UNL1     0.1310
     9 C         2.071722   -4.989063   -0.738483 C.ar        1 UNL1     0.0226
     10 C         2.536779   -5.856043   -1.734459 C.ar        1 UNL1     0.1343
     11 C         1.659268   -6.711077   -2.399841 C.ar        1 UNL1     0.1007
     12 C         0.2965   -6.63998   -2.098856 C.ar        1 UNL1     0.1389
     13 C         -0.171236   -5.766263   -1.09922 C.ar        1 UNL1     0.0229
     14 C         2.108456   -7.706122   -3.400975 C.2        1 UNL1     0.1740
     15 C         1.068623   -8.690367   -3.849927 C.3        1 UNL1     0.0520
     16 C         -0.252946   -7.952915   -4.015991 C.3        1 UNL1     0.1322
     17 O         -0.668384   -7.357504   -2.767006 O.3        1 UNL1     -0.4828
     18 C         -0.280478   -6.999773   -5.213274 C.ar        1 UNL1     -0.0067
     19 C         -1.417449   -6.967302   -6.046615 C.ar        1 UNL1     -0.0516
     20 C         -1.456364   -6.141962   -7.176775 C.ar        1 UNL1     -0.0198
     21 C         -0.364351   -5.351647   -7.4878 C.ar        1 UNL1     0.1169
     22 C         0.756539   -5.336827   -6.667907 C.ar        1 UNL1     -0.0198
     23 C         0.788455   -6.148269   -5.527469 C.ar        1 UNL1     -0.0516
     24 O         -0.423809   -4.58923   -8.617218 O.3        1 UNL1     -0.5068
     25 O         3.268794   -7.793344   -3.794031 O.2        1 UNL1     -0.2917
     26 O         3.87137   -5.856462   -2.018102 O.3        1 UNL1     -0.5058
     27 O         0.753486   -1.939354   -1.490335 O.3        1 UNL1     -0.3648
     28 O         -2.033027   0.007192   -0.278523 O.3        1 UNL1     -0.3841
     29 O         0.301206   -1.378751   2.062709 O.3        1 UNL1     -0.3863
     30 O         -3.09777   -2.460463   1.181249 O.3        1 UNL1     -0.3829
     31 H         -1.070336   -1.344767   -2.036346 H        1 UNL1     0.0937
     32 H         0.0   0.0   0.0 H        1 UNL1     0.0671
     33 H         -1.579191   -0.641026   2.002611 H        1 UNL1     0.0649
     34 H         -1.584321   -3.159146   2.378432 H        1 UNL1     0.0683
     35 H         -1.865121   -4.465529   0.322036 H        1 UNL1     0.1085
     36 H         2.812043   -4.390206   -0.219429 H        1 UNL1     0.0691
     37 H         -1.237071   -5.729067   -0.884502 H        1 UNL1     0.0691
     38 H         0.993744   -9.466828   -3.081143 H        1 UNL1     0.0385
     39 H         1.39942   -9.162138   -4.781476 H        1 UNL1     0.0385
     40 H         -1.020964   -8.708858   -4.228641 H        1 UNL1     0.0789
     41 H         -2.28391   -7.585043   -5.829148 H        1 UNL1     0.0623
     42 H         -2.3342   -6.134692   -7.818152 H        1 UNL1     0.0654
     43 H         1.611268   -4.710492   -6.893856 H        1 UNL1     0.0654
     44 H         1.676013   -6.103693   -4.903692 H        1 UNL1     0.0623
     45 H         -1.29713   -4.166748   -8.656427 H        1 UNL1     0.2921
     46 H         4.199339   -4.943423   -2.032496 H        1 UNL1     0.2922
     47 H         0.938683   -2.874443   -1.655169 H        1 UNL1     0.2126
     48 H         -2.763869   -0.639998   -0.251179 H        1 UNL1     0.2101
     49 H         0.389439   -2.217193   2.543358 H        1 UNL1     0.2100
     50 H         -3.456941   -1.999182   1.967333 H        1 UNL1     0.2102
@<TRIPOS>BOND
     1     1     2    1
     2     1     6    1
     3     2     3    1
     4     3     4    1
     5     3    29    1
     6     3    33    1
     7     4     5    1
     8     5     6    1
     9     5     7    1
    10     5    35    1
    11     7     8    1
    12     8     9   ar
    13     8    13   ar
    14     9    10   ar
    15     9    36    1
    16    10    11   ar
    17    10    26    1
    18    11    12   ar
    19    11    14    1
    20    12    13   ar
    21    12    17    1
    22    13    37    1
    23    14    15    1
    24    14    25    2
    25    15    16    1
    26    15    38    1
    27    15    39    1
    28    16    17    1
    29    16    18    1
    30    16    40    1
    31    18    19   ar
    32    18    23   ar
    33    19    20   ar
    34    19    41    1
    35    20    21   ar
    36    20    42    1
    37    21    22   ar
    38    21    24    1
    39    22    23   ar
    40    22    43    1
    41    23    44    1
    42    24    45    1
    43    26    46    1
    44    27    47    1
    45    28    48    1
    46    29    49    1
    47    30    50    1
    48     1    31    1
    49     1    27    1
    50     2    32    1
    51     2    28    1
    52     4    34    1
    53     4    30    1
