@<TRIPOS>MOLECULE
*****
 50 53 0 0 0
SMALL
GASTEIGER

@<TRIPOS>ATOM
     1 C         -0.250581   -1.393558   1.663133 C.3        1 UNL1     0.1889
     2 C         -0.443161   -0.987825   0.17712 C.3        1 UNL1     0.1342
     3 C         -1.903541   -0.974721   -0.299937 C.3        1 UNL1     0.1174
     4 C         -2.751318   -2.068767   0.353864 C.3        1 UNL1     0.1456
     5 C         -2.540432   -2.147814   1.876902 C.3        1 UNL1     0.2326
     6 O         -1.160608   -2.360624   2.166153 O.3        1 UNL1     -0.3076
     7 O         -3.103108   -1.03284   2.592129 O.3        1 UNL1     -0.4605
     8 C         -3.561227   -1.300956   3.869535 C.ar        1 UNL1     0.1310
     9 C         -4.350131   -2.397357   4.234004 C.ar        1 UNL1     0.0226
     10 C         -4.750515   -2.591525   5.561367 C.ar        1 UNL1     0.1343
     11 C         -4.35142   -1.706004   6.561576 C.ar        1 UNL1     0.1007
     12 C         -3.597829   -0.585117   6.203112 C.ar        1 UNL1     0.1389
     13 C         -3.197589   -0.388679   4.867952 C.ar        1 UNL1     0.0229
     14 C         -4.675391   -1.908571   7.992717 C.2        1 UNL1     0.1740
     15 C         -3.98145   -0.987013   8.952261 C.3        1 UNL1     0.0520
     16 C         -3.953332   0.40876   8.344822 C.3        1 UNL1     0.1322
     17 O         -3.241876   0.406572   7.087485 O.3        1 UNL1     -0.4828
     18 C         -5.324332   1.087561   8.296742 C.ar        1 UNL1     -0.0067
     19 C         -5.756336   1.691702   7.098159 C.ar        1 UNL1     -0.0516
     20 C         -6.983759   2.361921   7.033336 C.ar        1 UNL1     -0.0198
     21 C         -7.783151   2.44116   8.159622 C.ar        1 UNL1     0.1169
     22 C         -7.400329   1.827546   9.34527 C.ar        1 UNL1     -0.0198
     23 C         -6.181426   1.141448   9.40529 C.ar        1 UNL1     -0.0516
     24 O         -8.954227   3.134521   8.068888 O.3        1 UNL1     -0.5068
     25 O         -5.397495   -2.814381   8.400834 O.2        1 UNL1     -0.2917
     26 O         -5.520316   -3.680257   5.850598 O.3        1 UNL1     -0.5058
     27 O         -0.126193   -0.285369   2.540191 O.3        1 UNL1     -0.3648
     28 O         0.268742   -1.928258   -0.648401 O.3        1 UNL1     -0.3841
     29 O         -2.472884   0.327874   -0.154234 O.3        1 UNL1     -0.3863
     30 O         -2.409059   -3.345063   -0.228903 O.3        1 UNL1     -0.3829
     31 H         0.719867   -1.897835   1.726482 H        1 UNL1     0.0937
     32 H         0.0   0.0   0.0 H        1 UNL1     0.0671
     33 H         -1.905125   -1.174626   -1.380564 H        1 UNL1     0.0649
     34 H         -3.812563   -1.894933   0.144242 H        1 UNL1     0.0683
     35 H         -3.072465   -3.061373   2.17055 H        1 UNL1     0.1085
     36 H         -4.64639   -3.151441   3.513095 H        1 UNL1     0.0691
     37 H         -2.612145   0.492554   4.614618 H        1 UNL1     0.0691
     38 H         -2.967458   -1.371358   9.105966 H        1 UNL1     0.0385
     39 H         -4.505225   -1.009553   9.913994 H        1 UNL1     0.0385
     40 H         -3.340985   1.037114   9.005673 H        1 UNL1     0.0789
     41 H         -5.14293   1.651366   6.20275 H        1 UNL1     0.0623
     42 H         -7.300336   2.833955   6.106527 H        1 UNL1     0.0654
     43 H         -8.025615   1.870569   10.229056 H        1 UNL1     0.0654
     44 H         -5.918789   0.664814   10.344805 H        1 UNL1     0.0623
     45 H         -8.748807   4.054161   7.834831 H        1 UNL1     0.2921
     46 H         -5.083238   -4.213342   6.533382 H        1 UNL1     0.2922
     47 H         0.599012   0.287757   2.254773 H        1 UNL1     0.2126
     48 H         1.210986   -1.860531   -0.400767 H        1 UNL1     0.2101
     49 H         -2.065863   0.938818   -0.788958 H        1 UNL1     0.2100
     50 H         -2.678655   -3.32855   -1.170581 H        1 UNL1     0.2102
@<TRIPOS>BOND
     1     1     2    1
     2     1     6    1
     3     2     3    1
     4     3     4    1
     5     3    29    1
     6     3    33    1
     7     4     5    1
     8     5     6    1
     9     5     7    1
    10     5    35    1
    11     7     8    1
    12     8     9   ar
    13     8    13   ar
    14     9    10   ar
    15     9    36    1
    16    10    11   ar
    17    10    26    1
    18    11    12   ar
    19    11    14    1
    20    12    13   ar
    21    12    17    1
    22    13    37    1
    23    14    15    1
    24    14    25    2
    25    15    16    1
    26    15    38    1
    27    15    39    1
    28    16    17    1
    29    16    18    1
    30    16    40    1
    31    18    19   ar
    32    18    23   ar
    33    19    20   ar
    34    19    41    1
    35    20    21   ar
    36    20    42    1
    37    21    22   ar
    38    21    24    1
    39    22    23   ar
    40    22    43    1
    41    23    44    1
    42    24    45    1
    43    26    46    1
    44    27    47    1
    45    28    48    1
    46    29    49    1
    47    30    50    1
    48     1    31    1
    49     1    27    1
    50     2    32    1
    51     2    28    1
    52     4    34    1
    53     4    30    1
