@<TRIPOS>MOLECULE
*****
 50 53 0 0 0
SMALL
GASTEIGER

@<TRIPOS>ATOM
     1 C         -0.355168   -1.340251   1.687717 C.3        1 UNL1     0.1889
     2 C         -0.474692   -0.971704   0.184444 C.3        1 UNL1     0.1342
     3 C         -1.912854   -0.937281   -0.354971 C.3        1 UNL1     0.1174
     4 C         -2.81444   -1.99223   0.29105 C.3        1 UNL1     0.1456
     5 C         -2.670065   -2.033711   1.823303 C.3        1 UNL1     0.2326
     6 O         -1.309405   -2.271037   2.177067 O.3        1 UNL1     -0.3076
     7 O         -3.234504   -0.886171   2.483516 O.3        1 UNL1     -0.4605
     8 C         -3.752668   -1.107581   3.74685 C.ar        1 UNL1     0.1310
     9 C         -4.583298   -2.174355   4.106496 C.ar        1 UNL1     0.0226
     10 C         -5.044063   -2.321841   5.420211 C.ar        1 UNL1     0.1343
     11 C         -4.665627   -1.418461   6.412447 C.ar        1 UNL1     0.1007
     12 C         -3.869912   -0.326211   6.056624 C.ar        1 UNL1     0.1389
     13 C         -3.408904   -0.176671   4.735057 C.ar        1 UNL1     0.0229
     14 C         -5.054662   -1.573256   7.833308 C.2        1 UNL1     0.1740
     15 C         -4.379121   -0.641993   8.796606 C.3        1 UNL1     0.0520
     16 C         -4.290655   0.73522   8.153632 C.3        1 UNL1     0.1322
     17 O         -3.527034   0.681056   6.928471 O.3        1 UNL1     -0.4828
     18 C         -5.641083   1.444747   8.028581 C.ar        1 UNL1     -0.0067
     19 C         -6.006536   2.026083   6.797034 C.ar        1 UNL1     -0.0516
     20 C         -7.213062   2.723176   6.661691 C.ar        1 UNL1     -0.0198
     21 C         -8.057459   2.851978   7.749915 C.ar        1 UNL1     0.1169
     22 C         -7.740812   2.261988   8.966667 C.ar        1 UNL1     -0.0198
     23 C         -6.542986   1.549096   9.097261 C.ar        1 UNL1     -0.0516
     24 O         -9.206029   3.570158   7.590524 O.3        1 UNL1     -0.5068
     25 O         -5.81567   -2.449935   8.234288 O.2        1 UNL1     -0.2917
     26 O         -5.852246   -3.383506   5.705329 O.3        1 UNL1     -0.5058
     27 O         -0.240369   -0.211273   2.539197 O.3        1 UNL1     -0.3648
     28 O         0.247796   -1.95144   -0.584215 O.3        1 UNL1     -0.3841
     29 O         -2.455242   0.382012   -0.268882 O.3        1 UNL1     -0.3863
     30 O         -2.47976   -3.292057   -0.241988 O.3        1 UNL1     -0.3829
     31 H         0.598889   -1.865443   1.806151 H        1 UNL1     0.0937
     32 H         0.0   0.0   0.0 H        1 UNL1     0.0671
     33 H         -1.873797   -1.167181   -1.428909 H        1 UNL1     0.0649
     34 H         -3.861235   -1.799189   0.03152 H        1 UNL1     0.0683
     35 H         -3.236592   -2.925838   2.118319 H        1 UNL1     0.1085
     36 H         -4.867539   -2.941029   3.394079 H        1 UNL1     0.0691
     37 H         -2.791537   0.68301   4.483462 H        1 UNL1     0.0691
     38 H         -3.382401   -1.045844   9.003922 H        1 UNL1     0.0385
     39 H         -4.943423   -0.625245   9.735254 H        1 UNL1     0.0385
     40 H         -3.6913   1.367073   8.823001 H        1 UNL1     0.0789
     41 H         -5.356761   1.946853   5.930336 H        1 UNL1     0.0623
     42 H         -7.478079   3.177159   5.710021 H        1 UNL1     0.0654
     43 H         -8.401891   2.343867   9.821174 H        1 UNL1     0.0654
     44 H         -6.3325   1.092141   10.05941 H        1 UNL1     0.0623
     45 H         -8.96791   4.4794   7.347018 H        1 UNL1     0.2921
     46 H         -5.458469   -3.906765   6.421255 H        1 UNL1     0.2922
     47 H         0.508608   0.337744   2.268138 H        1 UNL1     0.2126
     48 H         1.183073   -1.887436   -0.310551 H        1 UNL1     0.2101
     49 H         -2.00683   0.965132   -0.901885 H        1 UNL1     0.2100
     50 H         -2.714118   -3.297326   -1.193177 H        1 UNL1     0.2102
@<TRIPOS>BOND
     1     1     2    1
     2     1     6    1
     3     2     3    1
     4     3     4    1
     5     3    29    1
     6     3    33    1
     7     4     5    1
     8     5     6    1
     9     5     7    1
    10     5    35    1
    11     7     8    1
    12     8     9   ar
    13     8    13   ar
    14     9    10   ar
    15     9    36    1
    16    10    11   ar
    17    10    26    1
    18    11    12   ar
    19    11    14    1
    20    12    13   ar
    21    12    17    1
    22    13    37    1
    23    14    15    1
    24    14    25    2
    25    15    16    1
    26    15    38    1
    27    15    39    1
    28    16    17    1
    29    16    18    1
    30    16    40    1
    31    18    19   ar
    32    18    23   ar
    33    19    20   ar
    34    19    41    1
    35    20    21   ar
    36    20    42    1
    37    21    22   ar
    38    21    24    1
    39    22    23   ar
    40    22    43    1
    41    23    44    1
    42    24    45    1
    43    26    46    1
    44    27    47    1
    45    28    48    1
    46    29    49    1
    47    30    50    1
    48     1    31    1
    49     1    27    1
    50     2    32    1
    51     2    28    1
    52     4    34    1
    53     4    30    1
