@<TRIPOS>MOLECULE
*****
 50 53 0 0 0
SMALL
GASTEIGER

@<TRIPOS>ATOM
     1 C         0.004759   -1.099137   1.887506 C.3        1 UNL1     0.1889
     2 C         -0.259904   -1.002889   0.360866 C.3        1 UNL1     0.1342
     3 C         -1.700237   -1.32998   -0.06212 C.3        1 UNL1     0.1174
     4 C         -2.338445   -2.42211   0.799889 C.3        1 UNL1     0.1456
     5 C         -2.113843   -2.192191   2.305563 C.3        1 UNL1     0.2326
     6 O         -0.717604   -2.105857   2.581121 O.3        1 UNL1     -0.3076
     7 O         -2.864578   -1.084049   2.834466 O.3        1 UNL1     -0.4605
     8 C         -3.264724   -1.197497   4.153761 C.ar        1 UNL1     0.1310
     9 C         -3.844823   -2.332799   4.729847 C.ar        1 UNL1     0.0226
     10 C         -4.201222   -2.355673   6.083494 C.ar        1 UNL1     0.1343
     11 C         -3.964055   -1.250968   6.900328 C.ar        1 UNL1     0.1007
     12 C         -3.423054   -0.097065   6.327082 C.ar        1 UNL1     0.1389
     13 C         -3.067218   -0.073399   4.965373 C.ar        1 UNL1     0.0229
     14 C         -4.243534   -1.250215   8.354991 C.2        1 UNL1     0.1740
     15 C         -3.722753   -0.066224   9.115584 C.3        1 UNL1     0.0520
     16 C         -3.945153   1.182844   8.273963 C.3        1 UNL1     0.1322
     17 O         -3.247516   1.082387   7.0129 O.3        1 UNL1     -0.4828
     18 C         -5.415269   1.59185   8.154813 C.ar        1 UNL1     -0.0067
     19 C         -5.951182   1.88715   6.884455 C.ar        1 UNL1     -0.0516
     20 C         -7.278533   2.309953   6.745395 C.ar        1 UNL1     -0.0198
     21 C         -8.076246   2.448169   7.867169 C.ar        1 UNL1     0.1169
     22 C         -7.587075   2.132789   9.128155 C.ar        1 UNL1     -0.0198
     23 C         -6.265291   1.692263   9.265566 C.ar        1 UNL1     -0.0516
     24 O         -9.352344   2.898599   7.696619 O.3        1 UNL1     -0.5068
     25 O         -4.791764   -2.181508   8.93862 O.2        1 UNL1     -0.2917
     26 O         -4.764058   -3.49354   6.583554 O.3        1 UNL1     -0.5058
     27 O         -0.068357   0.151208   2.553898 O.3        1 UNL1     -0.3648
     28 O         0.606389   -1.935413   -0.31192 O.3        1 UNL1     -0.3841
     29 O         -2.492056   -0.1421   -0.126141 O.3        1 UNL1     -0.3863
     30 O         -1.77563   -3.701592   0.436767 O.3        1 UNL1     -0.3829
     31 H         1.049594   -1.406668   2.005084 H        1 UNL1     0.0937
     32 H         0.0   0.0   0.0 H        1 UNL1     0.0671
     33 H         -1.668352   -1.715169   -1.090873 H        1 UNL1     0.0649
     34 H         -3.414097   -2.4764   0.59883 H        1 UNL1     0.0683
     35 H         -2.474188   -3.118061   2.771177 H        1 UNL1     0.1085
     36 H         -4.003592   -3.242719   4.161553 H        1 UNL1     0.0691
     37 H         -2.648735   0.83761   4.542966 H        1 UNL1     0.0691
     38 H         -2.656161   -0.233798   9.299503 H        1 UNL1     0.0385
     39 H         -4.231971   -0.009263   10.083691 H        1 UNL1     0.0385
     40 H         -3.453086   2.015658   8.794358 H        1 UNL1     0.0789
     41 H         -5.342793   1.79534   5.989421 H        1 UNL1     0.0623
     42 H         -7.676608   2.546073   5.761629 H        1 UNL1     0.0654
     43 H         -8.207663   2.223046   10.01169 H        1 UNL1     0.0654
     44 H         -5.919441   1.44453   10.264496 H        1 UNL1     0.0623
     45 H         -9.314686   3.782666   7.296963 H        1 UNL1     0.2921
     46 H         -4.236725   -3.813073   7.332707 H        1 UNL1     0.2922
     47 H         0.542813   0.78253   2.14922 H        1 UNL1     0.2126
     48 H         1.522018   -1.661657   -0.110885 H        1 UNL1     0.2101
     49 H         -2.20148   0.408477   -0.870603 H        1 UNL1     0.2100
     50 H         -2.045722   -3.899431   -0.483897 H        1 UNL1     0.2102
@<TRIPOS>BOND
     1     1     2    1
     2     1     6    1
     3     2     3    1
     4     3     4    1
     5     3    29    1
     6     3    33    1
     7     4     5    1
     8     5     6    1
     9     5     7    1
    10     5    35    1
    11     7     8    1
    12     8     9   ar
    13     8    13   ar
    14     9    10   ar
    15     9    36    1
    16    10    11   ar
    17    10    26    1
    18    11    12   ar
    19    11    14    1
    20    12    13   ar
    21    12    17    1
    22    13    37    1
    23    14    15    1
    24    14    25    2
    25    15    16    1
    26    15    38    1
    27    15    39    1
    28    16    17    1
    29    16    18    1
    30    16    40    1
    31    18    19   ar
    32    18    23   ar
    33    19    20   ar
    34    19    41    1
    35    20    21   ar
    36    20    42    1
    37    21    22   ar
    38    21    24    1
    39    22    23   ar
    40    22    43    1
    41    23    44    1
    42    24    45    1
    43    26    46    1
    44    27    47    1
    45    28    48    1
    46    29    49    1
    47    30    50    1
    48     1    31    1
    49     1    27    1
    50     2    32    1
    51     2    28    1
    52     4    34    1
    53     4    30    1
