@<TRIPOS>MOLECULE
*****
 50 53 0 0 0
SMALL
GASTEIGER

@<TRIPOS>ATOM
     1 C         -0.982759   -1.715429   0.928597 C.3        1 UNL1     0.1889
     2 C         -0.699461   -0.794399   -0.288525 C.3        1 UNL1     0.1342
     3 C         -1.949298   -0.158115   -0.915833 C.3        1 UNL1     0.1174
     4 C         -3.17145   -1.078536   -0.868004 C.3        1 UNL1     0.1456
     5 C         -3.36728   -1.728271   0.513972 C.3        1 UNL1     0.2326
     6 O         -2.195387   -2.45276   0.88092 O.3        1 UNL1     -0.3076
     7 O         -3.800149   -0.801884   1.526767 O.3        1 UNL1     -0.4605
     8 C         -3.491298   -1.142203   2.831497 C.ar        1 UNL1     0.1310
     9 C         -2.395681   -1.915843   3.229498 C.ar        1 UNL1     0.0226
     10 C         -2.15779   -2.1924   4.581099 C.ar        1 UNL1     0.1343
     11 C         -2.997202   -1.681601   5.570196 C.ar        1 UNL1     0.1007
     12 C         -4.11767   -0.942021   5.182439 C.ar        1 UNL1     0.1389
     13 C         -4.358132   -0.666299   3.82318 C.ar        1 UNL1     0.0229
     14 C         -2.745604   -1.872433   7.017412 C.2        1 UNL1     0.1740
     15 C         -3.617429   -1.071287   7.939169 C.3        1 UNL1     0.0520
     16 C         -5.034762   -1.071592   7.383179 C.3        1 UNL1     0.1322
     17 O         -5.068352   -0.482922   6.064312 O.3        1 UNL1     -0.4828
     18 C         -5.738758   -2.426372   7.491277 C.ar        1 UNL1     -0.0067
     19 C         -6.986588   -2.508384   8.142743 C.ar        1 UNL1     -0.0516
     20 C         -7.634955   -3.739094   8.300648 C.ar        1 UNL1     -0.0198
     21 C         -7.043767   -4.893414   7.819119 C.ar        1 UNL1     0.1169
     22 C         -5.831441   -4.840353   7.143627 C.ar        1 UNL1     -0.0198
     23 C         -5.19166   -3.607325   6.96933 C.ar        1 UNL1     -0.0516
     24 O         -7.686785   -6.078588   8.024769 O.3        1 UNL1     -0.5068
     25 O         -1.837568   -2.571435   7.459399 O.2        1 UNL1     -0.2917
     26 O         -1.072385   -2.95401   4.902709 O.3        1 UNL1     -0.5058
     27 O         -0.812375   -1.06787   2.179366 O.3        1 UNL1     -0.3648
     28 O         -0.057026   -1.57637   -1.31249 O.3        1 UNL1     -0.3841
     29 O         -2.202785   1.128398   -0.347712 O.3        1 UNL1     -0.3863
     30 O         -3.017183   -2.122459   -1.853964 O.3        1 UNL1     -0.3829
     31 H         -0.210287   -2.492143   0.919634 H        1 UNL1     0.0937
     32 H         0.0   0.0   0.0 H        1 UNL1     0.0671
     33 H         -1.733652   0.028927   -1.977074 H        1 UNL1     0.0649
     34 H         -4.073461   -0.51664   -1.134552 H        1 UNL1     0.0683
     35 H         -4.160736   -2.467821   0.348528 H        1 UNL1     0.1085
     36 H         -1.675084   -2.295011   2.513194 H        1 UNL1     0.0691
     37 H         -5.238066   -0.089133   3.547339 H        1 UNL1     0.0691
     38 H         -3.209817   -0.055598   7.981039 H        1 UNL1     0.0385
     39 H         -3.567188   -1.501751   8.945129 H        1 UNL1     0.0385
     40 H         -5.626521   -0.386183   8.004914 H        1 UNL1     0.0789
     41 H         -7.467104   -1.617995   8.537665 H        1 UNL1     0.0623
     42 H         -8.591215   -3.790887   8.815328 H        1 UNL1     0.0654
     43 H         -5.366838   -5.736206   6.749291 H        1 UNL1     0.0654
     44 H         -4.250817   -3.601522   6.427457 H        1 UNL1     0.0623
     45 H         -7.220146   -6.563249   8.724818 H        1 UNL1     0.2921
     46 H         -1.210272   -3.363172   5.771609 H        1 UNL1     0.2922
     47 H         -1.539244   -0.449526   2.338022 H        1 UNL1     0.2126
     48 H         -0.227486   -1.121767   -2.159846 H        1 UNL1     0.2101
     49 H         -2.724859   1.664843   -0.965336 H        1 UNL1     0.2100
     50 H         -3.685066   -2.814448   -1.667428 H        1 UNL1     0.2102
@<TRIPOS>BOND
     1     1     2    1
     2     1     6    1
     3     2     3    1
     4     3     4    1
     5     3    29    1
     6     3    33    1
     7     4     5    1
     8     5     6    1
     9     5     7    1
    10     5    35    1
    11     7     8    1
    12     8     9   ar
    13     8    13   ar
    14     9    10   ar
    15     9    36    1
    16    10    11   ar
    17    10    26    1
    18    11    12   ar
    19    11    14    1
    20    12    13   ar
    21    12    17    1
    22    13    37    1
    23    14    15    1
    24    14    25    2
    25    15    16    1
    26    15    38    1
    27    15    39    1
    28    16    17    1
    29    16    18    1
    30    16    40    1
    31    18    19   ar
    32    18    23   ar
    33    19    20   ar
    34    19    41    1
    35    20    21   ar
    36    20    42    1
    37    21    22   ar
    38    21    24    1
    39    22    23   ar
    40    22    43    1
    41    23    44    1
    42    24    45    1
    43    26    46    1
    44    27    47    1
    45    28    48    1
    46    29    49    1
    47    30    50    1
    48     1    31    1
    49     1    27    1
    50     2    32    1
    51     2    28    1
    52     4    34    1
    53     4    30    1
