@<TRIPOS>MOLECULE
*****
 50 53 0 0 0
SMALL
GASTEIGER

@<TRIPOS>ATOM
     1 C         -1.314987   -0.4315   1.689799 C.3        1 UNL1     0.1889
     2 C         -0.979527   0.322047   0.374666 C.3        1 UNL1     0.1342
     3 C         -0.992167   1.853872   0.492215 C.3        1 UNL1     0.1174
     4 C         -2.056504   2.365619   1.466083 C.3        1 UNL1     0.1456
     5 C         -2.063865   1.587565   2.794594 C.3        1 UNL1     0.2326
     6 O         -2.25967   0.197891   2.542932 O.3        1 UNL1     -0.3076
     7 O         -0.918054   1.856689   3.622851 O.3        1 UNL1     -0.4605
     8 C         -1.13002   1.797927   4.988554 C.ar        1 UNL1     0.1310
     9 C         -2.006839   2.616585   5.708476 C.ar        1 UNL1     0.0226
     10 C         -2.164919   2.46786   7.091515 C.ar        1 UNL1     0.1343
     11 C         -1.467062   1.480079   7.785147 C.ar        1 UNL1     0.1007
     12 C         -0.557916   0.683575   7.083849 C.ar        1 UNL1     0.1389
     13 C         -0.39718   0.835066   5.693653 C.ar        1 UNL1     0.0229
     14 C         -1.65847   1.223822   9.231469 C.2        1 UNL1     0.1740
     15 C         -0.99891   -0.014135   9.764378 C.3        1 UNL1     0.0520
     16 C         0.37457   -0.143576   9.120363 C.3        1 UNL1     0.1322
     17 O         0.259806   -0.245702   7.683885 O.3        1 UNL1     -0.4828
     18 C         1.382645   0.901947   9.60347 C.ar        1 UNL1     -0.0067
     19 C         2.737788   0.7802   9.233366 C.ar        1 UNL1     -0.0516
     20 C         3.69367   1.692106   9.696702 C.ar        1 UNL1     -0.0198
     21 C         3.309198   2.723483   10.534717 C.ar        1 UNL1     0.1169
     22 C         1.976791   2.889192   10.889782 C.ar        1 UNL1     -0.0198
     23 C         1.017747   1.988239   10.411687 C.ar        1 UNL1     -0.0516
     24 O         4.274028   3.56982   10.996471 O.3        1 UNL1     -0.5068
     25 O         -2.370781   1.917468   9.952547 O.2        1 UNL1     -0.2917
     26 O         -3.035082   3.298939   7.734717 O.3        1 UNL1     -0.5058
     27 O         -0.166771   -0.859156   2.404989 O.3        1 UNL1     -0.3648
     28 O         -1.955783   -0.039346   -0.61983 O.3        1 UNL1     -0.3841
     29 O         0.314456   2.350404   0.789408 O.3        1 UNL1     -0.3863
     30 O         -3.3578   2.246344   0.85119 O.3        1 UNL1     -0.3829
     31 H         -1.813457   -1.362487   1.398474 H        1 UNL1     0.0937
     32 H         0.0   0.0   0.0 H        1 UNL1     0.0671
     33 H         -1.242305   2.263996   -0.496192 H        1 UNL1     0.0649
     34 H         -1.895161   3.429739   1.671069 H        1 UNL1     0.0683
     35 H         -2.963978   1.948718   3.307668 H        1 UNL1     0.1085
     36 H         -2.61944   3.365587   5.218746 H        1 UNL1     0.0691
     37 H         0.317812   0.203234   5.171094 H        1 UNL1     0.0691
     38 H         -1.637365   -0.866204   9.507706 H        1 UNL1     0.0385
     39 H         -0.939714   0.052303   10.856102 H        1 UNL1     0.0385
     40 H         0.788366   -1.112083   9.432272 H        1 UNL1     0.0789
     41 H         3.066446   -0.026012   8.584016 H        1 UNL1     0.0623
     42 H         4.737491   1.580597   9.413831 H        1 UNL1     0.0654
     43 H         1.662423   3.702163   11.533336 H        1 UNL1     0.0654
     44 H         -0.015627   2.154026   10.700645 H        1 UNL1     0.0623
     45 H         5.134553   3.127605   10.914867 H        1 UNL1     0.2921
     46 H         -3.577019   2.783971   8.353202 H        1 UNL1     0.2922
     47 H         0.129015   -0.164409   3.009717 H        1 UNL1     0.2126
     48 H         -1.780118   -0.969744   -0.859068 H        1 UNL1     0.2101
     49 H         0.395316   2.517248   1.741994 H        1 UNL1     0.2100
     50 H         -3.22758   1.963658   -0.077704 H        1 UNL1     0.2102
@<TRIPOS>BOND
     1     1     2    1
     2     1     6    1
     3     2     3    1
     4     3     4    1
     5     3    29    1
     6     3    33    1
     7     4     5    1
     8     5     6    1
     9     5     7    1
    10     5    35    1
    11     7     8    1
    12     8     9   ar
    13     8    13   ar
    14     9    10   ar
    15     9    36    1
    16    10    11   ar
    17    10    26    1
    18    11    12   ar
    19    11    14    1
    20    12    13   ar
    21    12    17    1
    22    13    37    1
    23    14    15    1
    24    14    25    2
    25    15    16    1
    26    15    38    1
    27    15    39    1
    28    16    17    1
    29    16    18    1
    30    16    40    1
    31    18    19   ar
    32    18    23   ar
    33    19    20   ar
    34    19    41    1
    35    20    21   ar
    36    20    42    1
    37    21    22   ar
    38    21    24    1
    39    22    23   ar
    40    22    43    1
    41    23    44    1
    42    24    45    1
    43    26    46    1
    44    27    47    1
    45    28    48    1
    46    29    49    1
    47    30    50    1
    48     1    31    1
    49     1    27    1
    50     2    32    1
    51     2    28    1
    52     4    34    1
    53     4    30    1
