@<TRIPOS>MOLECULE
*****
 50 53 0 0 0
SMALL
GASTEIGER

@<TRIPOS>ATOM
     1 C         -0.330151   -1.327117   1.703104 C.3        1 UNL1     0.1889
     2 C         -0.461559   -0.975611   0.196746 C.3        1 UNL1     0.1342
     3 C         -1.902631   -0.964735   -0.335849 C.3        1 UNL1     0.1174
     4 C         -2.787769   -2.024158   0.325416 C.3        1 UNL1     0.1456
     5 C         -2.635477   -2.048032   1.857278 C.3        1 UNL1     0.2326
     6 O         -1.270251   -2.264668   2.206698 O.3        1 UNL1     -0.3076
     7 O         -3.211079   -0.900895   2.508491 O.3        1 UNL1     -0.4605
     8 C         -3.719883   -1.115624   3.776772 C.ar        1 UNL1     0.1310
     9 C         -4.535007   -2.189021   4.151864 C.ar        1 UNL1     0.0226
     10 C         -4.9871   -2.328582   5.469451 C.ar        1 UNL1     0.1343
     11 C         -4.615101   -1.410146   6.450233 C.ar        1 UNL1     0.1007
     12 C         -3.835194   -0.311679   6.078884 C.ar        1 UNL1     0.1389
     13 C         -3.382925   -0.170143   4.753422 C.ar        1 UNL1     0.0229
     14 C         -4.994827   -1.554985   7.874657 C.2        1 UNL1     0.1740
     15 C         -4.326255   -0.605206   8.824647 C.3        1 UNL1     0.0520
     16 C         -4.258634   0.766215   8.166931 C.3        1 UNL1     0.1322
     17 O         -3.500691   0.708919   6.938391 O.3        1 UNL1     -0.4828
     18 C         -5.61861   1.457221   8.041631 C.ar        1 UNL1     -0.0067
     19 C         -5.998935   2.018504   6.805294 C.ar        1 UNL1     -0.0516
     20 C         -7.214931   2.698744   6.668946 C.ar        1 UNL1     -0.0198
     21 C         -8.054137   2.8306   7.760813 C.ar        1 UNL1     0.1169
     22 C         -7.722596   2.259869   8.982773 C.ar        1 UNL1     -0.0198
     23 C         -6.515131   1.563666   9.114624 C.ar        1 UNL1     -0.0516
     24 O         -9.212595   3.532346   7.599789 O.3        1 UNL1     -0.5068
     25 O         -5.742543   -2.436996   8.288736 O.2        1 UNL1     -0.2917
     26 O         -5.780227   -3.397365   5.769848 O.3        1 UNL1     -0.5058
     27 O         -0.225419   -0.188075   2.54239 O.3        1 UNL1     -0.3648
     28 O         0.269446   -1.954108   -0.56541 O.3        1 UNL1     -0.3841
     29 O         -2.461116   0.348492   -0.260592 O.3        1 UNL1     -0.3863
     30 O         -2.439379   -3.325124   -0.195929 O.3        1 UNL1     -0.3829
     31 H         0.630985   -1.839091   1.822177 H        1 UNL1     0.0937
     32 H         0.0   0.0   0.0 H        1 UNL1     0.0671
     33 H         -1.865884   -1.205186   -1.407554 H        1 UNL1     0.0649
     34 H         -3.838147   -1.846906   0.06912 H        1 UNL1     0.0683
     35 H         -3.189328   -2.944085   2.164229 H        1 UNL1     0.1085
     36 H         -4.813122   -2.966648   3.448964 H        1 UNL1     0.0691
     37 H         -2.777853   0.694614   4.489651 H        1 UNL1     0.0691
     38 H         -3.323422   -0.994198   9.030894 H        1 UNL1     0.0385
     39 H         -4.885894   -0.585791   9.766031 H        1 UNL1     0.0385
     40 H         -3.663939   1.412584   8.826527 H        1 UNL1     0.0789
     41 H         -5.353585   1.936554   5.935548 H        1 UNL1     0.0623
     42 H         -7.491502   3.137448   5.713405 H        1 UNL1     0.0654
     43 H         -8.379358   2.344175   9.840366 H        1 UNL1     0.0654
     44 H         -6.292983   1.121441   10.081025 H        1 UNL1     0.0623
     45 H         -8.987614   4.439547   7.336949 H        1 UNL1     0.2921
     46 H         -5.374809   -3.909577   6.487264 H        1 UNL1     0.2922
     47 H         0.51709   0.365943   2.263813 H        1 UNL1     0.2126
     48 H         1.202313   -1.887756   -0.284182 H        1 UNL1     0.2101
     49 H         -2.022947   0.930681   -0.901574 H        1 UNL1     0.2100
     50 H         -2.673032   -3.341198   -1.14717 H        1 UNL1     0.2102
@<TRIPOS>BOND
     1     1     2    1
     2     1     6    1
     3     2     3    1
     4     3     4    1
     5     3    29    1
     6     3    33    1
     7     4     5    1
     8     5     6    1
     9     5     7    1
    10     5    35    1
    11     7     8    1
    12     8     9   ar
    13     8    13   ar
    14     9    10   ar
    15     9    36    1
    16    10    11   ar
    17    10    26    1
    18    11    12   ar
    19    11    14    1
    20    12    13   ar
    21    12    17    1
    22    13    37    1
    23    14    15    1
    24    14    25    2
    25    15    16    1
    26    15    38    1
    27    15    39    1
    28    16    17    1
    29    16    18    1
    30    16    40    1
    31    18    19   ar
    32    18    23   ar
    33    19    20   ar
    34    19    41    1
    35    20    21   ar
    36    20    42    1
    37    21    22   ar
    38    21    24    1
    39    22    23   ar
    40    22    43    1
    41    23    44    1
    42    24    45    1
    43    26    46    1
    44    27    47    1
    45    28    48    1
    46    29    49    1
    47    30    50    1
    48     1    31    1
    49     1    27    1
    50     2    32    1
    51     2    28    1
    52     4    34    1
    53     4    30    1
