@<TRIPOS>MOLECULE
*****
 50 53 0 0 0
SMALL
GASTEIGER

@<TRIPOS>ATOM
     1 C         -0.370465   -1.397649   1.637112 C.3        1 UNL1     0.1889
     2 C         -0.487942   -0.971213   0.149063 C.3        1 UNL1     0.1342
     3 C         -1.926606   -0.896412   -0.384899 C.3        1 UNL1     0.1174
     4 C         -2.841602   -1.962181   0.223408 C.3        1 UNL1     0.1456
     5 C         -2.694608   -2.063252   1.752637 C.3        1 UNL1     0.2326
     6 O         -1.336686   -2.332729   2.093662 O.3        1 UNL1     -0.3076
     7 O         -3.241443   -0.933556   2.456968 O.3        1 UNL1     -0.4605
     8 C         -3.770255   -1.197053   3.707749 C.ar        1 UNL1     0.1310
     9 C         -4.619385   -2.264144   4.02015 C.ar        1 UNL1     0.0226
     10 C         -5.089951   -2.456699   5.324524 C.ar        1 UNL1     0.1343
     11 C         -4.703284   -1.599716   6.354043 C.ar        1 UNL1     0.1007
     12 C         -3.88869   -0.506776   6.046303 C.ar        1 UNL1     0.1389
     13 C         -3.417805   -0.311859   4.734166 C.ar        1 UNL1     0.0229
     14 C         -5.10286   -1.804978   7.765553 C.2        1 UNL1     0.1740
     15 C         -4.418529   -0.923653   8.768801 C.3        1 UNL1     0.0520
     16 C         -4.305014   0.476571   8.181907 C.3        1 UNL1     0.1322
     17 O         -3.535271   0.459364   6.959504 O.3        1 UNL1     -0.4828
     18 C         -5.643536   1.211669   8.0784 C.ar        1 UNL1     -0.0067
     19 C         -5.658637   2.576115   7.723052 C.ar        1 UNL1     -0.0516
     20 C         -6.861476   3.290141   7.665529 C.ar        1 UNL1     -0.0198
     21 C         -8.052473   2.654432   7.967571 C.ar        1 UNL1     0.1169
     22 C         -8.073413   1.303306   8.288287 C.ar        1 UNL1     -0.0198
     23 C         -6.872672   0.584482   8.32791 C.ar        1 UNL1     -0.0516
     24 O         -9.199775   3.391459   7.93777 O.3        1 UNL1     -0.5068
     25 O         -5.87967   -2.684893   8.127217 O.2        1 UNL1     -0.2917
     26 O         -5.916129   -3.516063   5.562776 O.3        1 UNL1     -0.5058
     27 O         -0.23799   -0.303197   2.530092 O.3        1 UNL1     -0.3648
     28 O         0.21906   -1.931374   -0.657749 O.3        1 UNL1     -0.3841
     29 O         -2.450178   0.426174   -0.247892 O.3        1 UNL1     -0.3863
     30 O         -2.526381   -3.245606   -0.358953 O.3        1 UNL1     -0.3829
     31 H         0.576348   -1.940223   1.733229 H        1 UNL1     0.0937
     32 H         0.0   0.0   0.0 H        1 UNL1     0.0671
     33 H         -1.893045   -1.0863   -1.466812 H        1 UNL1     0.0649
     34 H         -3.886117   -1.744888   -0.025937 H        1 UNL1     0.0683
     35 H         -3.273023   -2.957823   2.015424 H        1 UNL1     0.1085
     36 H         -4.911365   -2.9972   3.276176 H        1 UNL1     0.0691
     37 H         -2.785742   0.547368   4.520346 H        1 UNL1     0.0691
     38 H         -3.429403   -1.35108   8.964918 H        1 UNL1     0.0385
     39 H         -4.987909   -0.935523   9.704453 H        1 UNL1     0.0385
     40 H         -3.699805   1.071694   8.879095 H        1 UNL1     0.0789
     41 H         -4.736235   3.10021   7.490351 H        1 UNL1     0.0623
     42 H         -6.858771   4.34487   7.401803 H        1 UNL1     0.0654
     43 H         -9.002071   0.791941   8.511916 H        1 UNL1     0.0654
     44 H         -6.927321   -0.472089   8.57187 H        1 UNL1     0.0623
     45 H         -9.151678   4.062221   8.638115 H        1 UNL1     0.2921
     46 H         -5.645814   -3.959184   6.382524 H        1 UNL1     0.2922
     47 H         0.507171   0.254987   2.267363 H        1 UNL1     0.2126
     48 H         1.171298   -1.779581   -0.503038 H        1 UNL1     0.2101
     49 H         -2.143623   0.98028   -0.983273 H        1 UNL1     0.2100
     50 H         -2.78375   -3.219351   -1.303826 H        1 UNL1     0.2102
@<TRIPOS>BOND
     1     1     2    1
     2     1     6    1
     3     2     3    1
     4     3     4    1
     5     3    29    1
     6     3    33    1
     7     4     5    1
     8     5     6    1
     9     5     7    1
    10     5    35    1
    11     7     8    1
    12     8     9   ar
    13     8    13   ar
    14     9    10   ar
    15     9    36    1
    16    10    11   ar
    17    10    26    1
    18    11    12   ar
    19    11    14    1
    20    12    13   ar
    21    12    17    1
    22    13    37    1
    23    14    15    1
    24    14    25    2
    25    15    16    1
    26    15    38    1
    27    15    39    1
    28    16    17    1
    29    16    18    1
    30    16    40    1
    31    18    19   ar
    32    18    23   ar
    33    19    20   ar
    34    19    41    1
    35    20    21   ar
    36    20    42    1
    37    21    22   ar
    38    21    24    1
    39    22    23   ar
    40    22    43    1
    41    23    44    1
    42    24    45    1
    43    26    46    1
    44    27    47    1
    45    28    48    1
    46    29    49    1
    47    30    50    1
    48     1    31    1
    49     1    27    1
    50     2    32    1
    51     2    28    1
    52     4    34    1
    53     4    30    1
