@<TRIPOS>MOLECULE
*****
 50 53 0 0 0
SMALL
GASTEIGER

@<TRIPOS>ATOM
     1 C         0.676075   -1.971168   0.654389 C.3        1 UNL1     0.1889
     2 C         -0.243432   -1.052002   -0.193893 C.3        1 UNL1     0.1342
     3 C         -1.748053   -1.267647   0.029884 C.3        1 UNL1     0.1174
     4 C         -2.10335   -2.730788   0.305749 C.3        1 UNL1     0.1456
     5 C         -1.167913   -3.380047   1.341983 C.3        1 UNL1     0.2326
     6 O         0.185574   -3.279978   0.905031 O.3        1 UNL1     -0.3076
     7 O         -1.367979   -2.890979   2.680679 O.3        1 UNL1     -0.4605
     8 C         -1.124268   -3.794885   3.699054 C.ar        1 UNL1     0.1310
     9 C         -1.570289   -5.120561   3.729852 C.ar        1 UNL1     0.0226
     10 C         -1.255967   -5.965211   4.801146 C.ar        1 UNL1     0.1343
     11 C         -0.467183   -5.511177   5.857325 C.ar        1 UNL1     0.1007
     12 C         -0.050278   -4.177395   5.857659 C.ar        1 UNL1     0.1389
     13 C         -0.368678   -3.327547   4.781643 C.ar        1 UNL1     0.0229
     14 C         -0.035013   -6.38445   6.97302 C.2        1 UNL1     0.1740
     15 C         0.988152   -5.795842   7.899424 C.3        1 UNL1     0.0520
     16 C         0.636803   -4.333955   8.138998 C.3        1 UNL1     0.1322
     17 O         0.638229   -3.596034   6.897007 O.3        1 UNL1     -0.4828
     18 C         -0.616521   -4.133658   8.994443 C.ar        1 UNL1     -0.0067
     19 C         -1.614112   -3.235974   8.561789 C.ar        1 UNL1     -0.0516
     20 C         -2.750348   -2.993848   9.343009 C.ar        1 UNL1     -0.0198
     21 C         -2.896848   -3.636128   10.559497 C.ar        1 UNL1     0.1169
     22 C         -1.947839   -4.5509   10.997004 C.ar        1 UNL1     -0.0198
     23 C         -0.820486   -4.807115   10.207393 C.ar        1 UNL1     -0.0516
     24 O         -3.998101   -3.346681   11.310405 O.3        1 UNL1     -0.5068
     25 O         -0.412123   -7.545512   7.10796 O.2        1 UNL1     -0.2917
     26 O         -1.722742   -7.246926   4.770942 O.3        1 UNL1     -0.5058
     27 O         1.153185   -1.354731   1.839783 O.3        1 UNL1     -0.3648
     28 O         0.022528   -1.301016   -1.586719 O.3        1 UNL1     -0.3841
     29 O         -2.243938   -0.37906   1.0332 O.3        1 UNL1     -0.3863
     30 O         -2.020926   -3.478819   -0.926869 O.3        1 UNL1     -0.3829
     31 H         1.578942   -2.145736   0.059044 H        1 UNL1     0.0937
     32 H         0.0   0.0   0.0 H        1 UNL1     0.0671
     33 H         -2.268822   -0.983101   -0.895078 H        1 UNL1     0.0649
     34 H         -3.138598   -2.804467   0.656796 H        1 UNL1     0.0683
     35 H         -1.435534   -4.443648   1.310179 H        1 UNL1     0.1085
     36 H         -2.139855   -5.549681   2.912802 H        1 UNL1     0.0691
     37 H         -0.033032   -2.293032   4.806404 H        1 UNL1     0.0691
     38 H         1.966568   -5.892945   7.41693 H        1 UNL1     0.0385
     39 H         1.006157   -6.375052   8.828923 H        1 UNL1     0.0385
     40 H         1.458691   -3.894574   8.720346 H        1 UNL1     0.0789
     41 H         -1.518134   -2.712411   7.615047 H        1 UNL1     0.0623
     42 H         -3.506821   -2.290401   9.004008 H        1 UNL1     0.0654
     43 H         -2.060002   -5.070735   11.940986 H        1 UNL1     0.0654
     44 H         -0.104418   -5.535697   10.575168 H        1 UNL1     0.0623
     45 H         -3.985529   -2.398847   11.520569 H        1 UNL1     0.2921
     46 H         -0.977905   -7.86431   4.844892 H        1 UNL1     0.2922
     47 H         1.61172   -0.529907   1.627014 H        1 UNL1     0.2126
     48 H         0.959545   -1.07113   -1.737995 H        1 UNL1     0.2101
     49 H         -2.235625   0.532408   0.700106 H        1 UNL1     0.2100
     50 H         -2.718529   -3.145978   -1.528765 H        1 UNL1     0.2102
@<TRIPOS>BOND
     1     1     2    1
     2     1     6    1
     3     2     3    1
     4     3     4    1
     5     3    29    1
     6     3    33    1
     7     4     5    1
     8     5     6    1
     9     5     7    1
    10     5    35    1
    11     7     8    1
    12     8     9   ar
    13     8    13   ar
    14     9    10   ar
    15     9    36    1
    16    10    11   ar
    17    10    26    1
    18    11    12   ar
    19    11    14    1
    20    12    13   ar
    21    12    17    1
    22    13    37    1
    23    14    15    1
    24    14    25    2
    25    15    16    1
    26    15    38    1
    27    15    39    1
    28    16    17    1
    29    16    18    1
    30    16    40    1
    31    18    19   ar
    32    18    23   ar
    33    19    20   ar
    34    19    41    1
    35    20    21   ar
    36    20    42    1
    37    21    22   ar
    38    21    24    1
    39    22    23   ar
    40    22    43    1
    41    23    44    1
    42    24    45    1
    43    26    46    1
    44    27    47    1
    45    28    48    1
    46    29    49    1
    47    30    50    1
    48     1    31    1
    49     1    27    1
    50     2    32    1
    51     2    28    1
    52     4    34    1
    53     4    30    1
