@<TRIPOS>MOLECULE
*****
 50 53 0 0 0
SMALL
GASTEIGER

@<TRIPOS>ATOM
     1 C         -0.237563   -1.279155   1.75446 C.3        1 UNL1     0.1889
     2 C         -0.41069   -0.988746   0.239327 C.3        1 UNL1     0.1342
     3 C         -1.859237   -1.065605   -0.266904 C.3        1 UNL1     0.1174
     4 C         -2.681222   -2.141441   0.447262 C.3        1 UNL1     0.1456
     5 C         -2.502603   -2.10289   1.975978 C.3        1 UNL1     0.2326
     6 O         -1.122923   -2.241626   2.307798 O.3        1 UNL1     -0.3076
     7 O         -3.121945   -0.961734   2.596862 O.3        1 UNL1     -0.4605
     8 C         -3.599155   -1.154764   3.880816 C.ar        1 UNL1     0.1310
     9 C         -4.355596   -2.251465   4.307835 C.ar        1 UNL1     0.0226
     10 C         -4.778974   -2.365004   5.637407 C.ar        1 UNL1     0.1343
     11 C         -4.435593   -1.395418   6.578595 C.ar        1 UNL1     0.1007
     12 C         -3.715467   -0.275227   6.15507 C.ar        1 UNL1     0.1389
     13 C         -3.292135   -0.15999   4.817557 C.ar        1 UNL1     0.0229
     14 C         -4.784706   -1.506968   8.013806 C.2        1 UNL1     0.1740
     15 C         -4.147139   -0.493139   8.917801 C.3        1 UNL1     0.0520
     16 C         -4.156145   0.8555   8.211367 C.3        1 UNL1     0.1322
     17 O         -3.416411   0.790219   6.972173 O.3        1 UNL1     -0.4828
     18 C         -5.549586   1.476328   8.086394 C.ar        1 UNL1     -0.0067
     19 C         -5.97541   1.976831   6.838843 C.ar        1 UNL1     -0.0516
     20 C         -7.224705   2.593397   6.700747 C.ar        1 UNL1     -0.0198
     21 C         -8.052454   2.721896   7.801723 C.ar        1 UNL1     0.1169
     22 C         -7.675117   2.209153   9.036045 C.ar        1 UNL1     -0.0198
     23 C         -6.433642   1.576093   9.170317 C.ar        1 UNL1     -0.0516
     24 O         -9.2457   3.361838   7.637286 O.3        1 UNL1     -0.5068
     25 O         -5.48238   -2.408029   8.471871 O.2        1 UNL1     -0.2917
     26 O         -5.514883   -3.458733   5.989233 O.3        1 UNL1     -0.5058
     27 O         -0.173949   -0.106949   2.551125 O.3        1 UNL1     -0.3648
     28 O         0.35389   -1.958164   -0.501182 O.3        1 UNL1     -0.3841
     29 O         -2.479028   0.221428   -0.227677 O.3        1 UNL1     -0.3863
     30 O         -2.279233   -3.442286   -0.034296 O.3        1 UNL1     -0.3829
     31 H         0.748967   -1.740214   1.873881 H        1 UNL1     0.0937
     32 H         0.0   0.0   0.0 H        1 UNL1     0.0671
     33 H         -1.828704   -1.342456   -1.329985 H        1 UNL1     0.0649
     34 H         -3.743023   -2.023692   0.204126 H        1 UNL1     0.0683
     35 H         -3.007472   -3.012643   2.324313 H        1 UNL1     0.1085
     36 H         -4.607454   -3.066085   3.637699 H        1 UNL1     0.0691
     37 H         -2.733648   0.722472   4.512849 H        1 UNL1     0.0691
     38 H         -3.123565   -0.826518   9.119499 H        1 UNL1     0.0385
     39 H         -4.691677   -0.46656   9.867827 H        1 UNL1     0.0385
     40 H         -3.582517   1.552548   8.837143 H        1 UNL1     0.0789
     41 H         -5.340269   1.896414   5.961472 H        1 UNL1     0.0623
     42 H         -7.5367   2.985943   5.736082 H        1 UNL1     0.0654
     43 H         -8.321955   2.290968   9.901387 H        1 UNL1     0.0654
     44 H         -6.175665   1.177806   10.146872 H        1 UNL1     0.0623
     45 H         -9.068694   4.26969   7.342006 H        1 UNL1     0.2921
     46 H         -5.074391   -3.924391   6.717615 H        1 UNL1     0.2922
     47 H         0.536173   0.471452   2.239614 H        1 UNL1     0.2126
     48 H         1.287094   -1.836961   -0.240082 H        1 UNL1     0.2101
     49 H         -2.080277   0.80027   -0.896806 H        1 UNL1     0.2100
     50 H         -2.527565   -3.503684   -0.979957 H        1 UNL1     0.2102
@<TRIPOS>BOND
     1     1     2    1
     2     1     6    1
     3     2     3    1
     4     3     4    1
     5     3    29    1
     6     3    33    1
     7     4     5    1
     8     5     6    1
     9     5     7    1
    10     5    35    1
    11     7     8    1
    12     8     9   ar
    13     8    13   ar
    14     9    10   ar
    15     9    36    1
    16    10    11   ar
    17    10    26    1
    18    11    12   ar
    19    11    14    1
    20    12    13   ar
    21    12    17    1
    22    13    37    1
    23    14    15    1
    24    14    25    2
    25    15    16    1
    26    15    38    1
    27    15    39    1
    28    16    17    1
    29    16    18    1
    30    16    40    1
    31    18    19   ar
    32    18    23   ar
    33    19    20   ar
    34    19    41    1
    35    20    21   ar
    36    20    42    1
    37    21    22   ar
    38    21    24    1
    39    22    23   ar
    40    22    43    1
    41    23    44    1
    42    24    45    1
    43    26    46    1
    44    27    47    1
    45    28    48    1
    46    29    49    1
    47    30    50    1
    48     1    31    1
    49     1    27    1
    50     2    32    1
    51     2    28    1
    52     4    34    1
    53     4    30    1
