@<TRIPOS>MOLECULE
*****
 50 53 0 0 0
SMALL
GASTEIGER

@<TRIPOS>ATOM
     1 C         -0.603041   1.956056   0.762227 C.3        1 UNL1     0.1889
     2 C         -0.177337   1.009195   -0.391969 C.3        1 UNL1     0.1342
     3 C         1.063124   1.468327   -1.173583 C.3        1 UNL1     0.1174
     4 C         1.151919   2.990818   -1.304935 C.3        1 UNL1     0.1456
     5 C         0.88928   3.714571   0.02832 C.3        1 UNL1     0.2326
     6 O         -0.388253   3.342041   0.540177 O.3        1 UNL1     -0.3076
     7 O         1.951311   3.554531   0.986338 O.3        1 UNL1     -0.4605
     8 C         1.589097   3.664073   2.316875 C.ar        1 UNL1     0.1310
     9 C         2.36646   3.252601   3.404853 C.ar        1 UNL1     0.0226
     10 C         1.918009   3.422376   4.720137 C.ar        1 UNL1     0.1343
     11 C         0.690459   4.030039   4.980345 C.ar        1 UNL1     0.1007
     12 C         -0.112814   4.407814   3.901076 C.ar        1 UNL1     0.1389
     13 C         0.337167   4.234593   2.5786 C.ar        1 UNL1     0.0229
     14 C         0.20519   4.310262   6.351528 C.2        1 UNL1     0.1740
     15 C         -1.024166   5.165751   6.44302 C.3        1 UNL1     0.0520
     16 C         -1.987103   4.744859   5.341403 C.3        1 UNL1     0.1322
     17 O         -1.383657   4.915687   4.039965 O.3        1 UNL1     -0.4828
     18 C         -2.623096   3.37162   5.570429 C.ar        1 UNL1     -0.0067
     19 C         -3.660193   3.237796   6.516333 C.ar        1 UNL1     -0.0516
     20 C         -4.231125   1.98792   6.784307 C.ar        1 UNL1     -0.0198
     21 C         -3.769789   0.865625   6.119889 C.ar        1 UNL1     0.1169
     22 C         -2.772828   0.970618   5.1587 C.ar        1 UNL1     -0.0198
     23 C         -2.21444   2.223221   4.877195 C.ar        1 UNL1     -0.0516
     24 O         -4.323818   -0.340395   6.434478 O.3        1 UNL1     -0.5068
     25 O         0.795844   3.946881   7.365218 O.2        1 UNL1     -0.2917
     26 O         2.723617   2.998521   5.736467 O.3        1 UNL1     -0.5058
     27 O         -0.123177   1.548803   2.033708 O.3        1 UNL1     -0.3648
     28 O         -1.265038   0.916523   -1.330598 O.3        1 UNL1     -0.3841
     29 O         2.249869   0.889869   -0.626633 O.3        1 UNL1     -0.3863
     30 O         0.181651   3.439941   -2.275789 O.3        1 UNL1     -0.3829
     31 H         -1.692318   1.876077   0.846831 H        1 UNL1     0.0937
     32 H         0.0   0.0   0.0 H        1 UNL1     0.0671
     33 H         0.98524   1.065396   -2.193044 H        1 UNL1     0.0649
     34 H         2.139706   3.276587   -1.683107 H        1 UNL1     0.0683
     35 H         0.823659   4.7729   -0.253659 H        1 UNL1     0.1085
     36 H         3.353879   2.824657   3.270731 H        1 UNL1     0.0691
     37 H         -0.307627   4.536028   1.755879 H        1 UNL1     0.0691
     38 H         -0.7123   6.208168   6.317985 H        1 UNL1     0.0385
     39 H         -1.463401   5.057439   7.440577 H        1 UNL1     0.0385
     40 H         -2.822811   5.457596   5.352222 H        1 UNL1     0.0789
     41 H         -4.033676   4.102068   7.057807 H        1 UNL1     0.0623
     42 H         -5.022055   1.895842   7.524553 H        1 UNL1     0.0654
     43 H         -2.414506   0.100509   4.621648 H        1 UNL1     0.0654
     44 H         -1.444847   2.27001   4.112746 H        1 UNL1     0.0623
     45 H         -5.028727   -0.530395   5.794384 H        1 UNL1     0.2921
     46 H         2.32902   3.247193   6.58727 H        1 UNL1     0.2922
     47 H         -0.583306   0.749187   2.324835 H        1 UNL1     0.2126
     48 H         -2.01429   1.405935   -0.939665 H        1 UNL1     0.2101
     49 H         2.485954   1.34041   0.199848 H        1 UNL1     0.2100
     50 H         -0.137413   2.655507   -2.768307 H        1 UNL1     0.2102
@<TRIPOS>BOND
     1     1     2    1
     2     1     6    1
     3     2     3    1
     4     3     4    1
     5     3    29    1
     6     3    33    1
     7     4     5    1
     8     5     6    1
     9     5     7    1
    10     5    35    1
    11     7     8    1
    12     8     9   ar
    13     8    13   ar
    14     9    10   ar
    15     9    36    1
    16    10    11   ar
    17    10    26    1
    18    11    12   ar
    19    11    14    1
    20    12    13   ar
    21    12    17    1
    22    13    37    1
    23    14    15    1
    24    14    25    2
    25    15    16    1
    26    15    38    1
    27    15    39    1
    28    16    17    1
    29    16    18    1
    30    16    40    1
    31    18    19   ar
    32    18    23   ar
    33    19    20   ar
    34    19    41    1
    35    20    21   ar
    36    20    42    1
    37    21    22   ar
    38    21    24    1
    39    22    23   ar
    40    22    43    1
    41    23    44    1
    42    24    45    1
    43    26    46    1
    44    27    47    1
    45    28    48    1
    46    29    49    1
    47    30    50    1
    48     1    31    1
    49     1    27    1
    50     2    32    1
    51     2    28    1
    52     4    34    1
    53     4    30    1
