@<TRIPOS>MOLECULE
*****
 50 53 0 0 0
SMALL
GASTEIGER

@<TRIPOS>ATOM
     1 C         -1.442729   -1.320649   0.972227 C.3        1 UNL1     0.1889
     2 C         -0.875009   -0.599652   -0.279891 C.3        1 UNL1     0.1342
     3 C         -1.882612   0.297157   -1.015373 C.3        1 UNL1     0.1174
     4 C         -3.307788   -0.260441   -0.982584 C.3        1 UNL1     0.1456
     5 C         -3.725029   -0.731657   0.422488 C.3        1 UNL1     0.2326
     6 O         -2.805857   -1.711757   0.899349 O.3        1 UNL1     -0.3076
     7 O         -3.933051   0.348161   1.35095 O.3        1 UNL1     -0.4605
     8 C         -4.890711   0.133449   2.32579 C.ar        1 UNL1     0.1310
     9 C         -6.164088   -0.402982   2.106584 C.ar        1 UNL1     0.0226
     10 C         -7.059202   -0.598265   3.165138 C.ar        1 UNL1     0.1343
     11 C         -6.693492   -0.283673   4.47324 C.ar        1 UNL1     0.1007
     12 C         -5.439823   0.29082   4.699195 C.ar        1 UNL1     0.1389
     13 C         -4.540964   0.489529   3.634302 C.ar        1 UNL1     0.0229
     14 C         -7.567949   -0.547274   5.639427 C.2        1 UNL1     0.1740
     15 C         -6.931424   -0.355827   6.98469 C.3        1 UNL1     0.0520
     16 C         -6.051763   0.885573   6.929195 C.3        1 UNL1     0.1322
     17 O         -5.018765   0.737816   5.930119 O.3        1 UNL1     -0.4828
     18 C         -6.839018   2.195072   6.838829 C.ar        1 UNL1     -0.0067
     19 C         -6.481308   3.152561   5.867505 C.ar        1 UNL1     -0.0516
     20 C         -7.149708   4.380159   5.78871 C.ar        1 UNL1     -0.0198
     21 C         -8.170338   4.664609   6.678221 C.ar        1 UNL1     0.1169
     22 C         -8.567685   3.728595   7.624176 C.ar        1 UNL1     -0.0198
     23 C         -7.911728   2.493572   7.691229 C.ar        1 UNL1     -0.0516
     24 O         -8.773   5.88542   6.59564 O.3        1 UNL1     -0.5068
     25 O         -8.715926   -0.972709   5.541243 O.2        1 UNL1     -0.2917
     26 O         -8.286284   -1.1244   2.884003 O.3        1 UNL1     -0.5058
     27 O         -1.154273   -0.651258   2.189395 O.3        1 UNL1     -0.3648
     28 O         -0.42609   -1.596971   -1.216124 O.3        1 UNL1     -0.3841
     29 O         -1.803841   1.643003   -0.541426 O.3        1 UNL1     -0.3863
     30 O         -3.400521   -1.377472   -1.893261 O.3        1 UNL1     -0.3829
     31 H         -0.907216   -2.272759   1.054632 H        1 UNL1     0.0937
     32 H         0.0   0.0   0.0 H        1 UNL1     0.0671
     33 H         -1.583062   0.341843   -2.071778 H        1 UNL1     0.0649
     34 H         -4.014765   0.499205   -1.334044 H        1 UNL1     0.0683
     35 H         -4.680646   -1.244622   0.256528 H        1 UNL1     0.1085
     36 H         -6.487507   -0.719677   1.121076 H        1 UNL1     0.0691
     37 H         -3.571374   0.939551   3.836464 H        1 UNL1     0.0691
     38 H         -6.338311   -1.25083   7.200823 H        1 UNL1     0.0385
     39 H         -7.716012   -0.273693   7.744594 H        1 UNL1     0.0385
     40 H         -5.507017   0.939132   7.88151 H        1 UNL1     0.0789
     41 H         -5.677532   2.956967   5.163703 H        1 UNL1     0.0623
     42 H         -6.856675   5.115028   5.042982 H        1 UNL1     0.0654
     43 H         -9.375693   3.935065   8.315843 H        1 UNL1     0.0654
     44 H         -8.255304   1.781855   8.435715 H        1 UNL1     0.0623
     45 H         -8.101484   6.569894   6.748215 H        1 UNL1     0.2921
     46 H         -8.421684   -1.928526   3.409798 H        1 UNL1     0.2922
     47 H         -0.199987   -0.523053   2.282989 H        1 UNL1     0.2126
     48 H         0.280603   -2.101839   -0.769552 H        1 UNL1     0.2101
     49 H         -0.964123   2.042187   -0.81949 H        1 UNL1     0.2100
     50 H         -3.270424   -1.036806   -2.80251 H        1 UNL1     0.2102
@<TRIPOS>BOND
     1     1     2    1
     2     1     6    1
     3     2     3    1
     4     3     4    1
     5     3    29    1
     6     3    33    1
     7     4     5    1
     8     5     6    1
     9     5     7    1
    10     5    35    1
    11     7     8    1
    12     8     9   ar
    13     8    13   ar
    14     9    10   ar
    15     9    36    1
    16    10    11   ar
    17    10    26    1
    18    11    12   ar
    19    11    14    1
    20    12    13   ar
    21    12    17    1
    22    13    37    1
    23    14    15    1
    24    14    25    2
    25    15    16    1
    26    15    38    1
    27    15    39    1
    28    16    17    1
    29    16    18    1
    30    16    40    1
    31    18    19   ar
    32    18    23   ar
    33    19    20   ar
    34    19    41    1
    35    20    21   ar
    36    20    42    1
    37    21    22   ar
    38    21    24    1
    39    22    23   ar
    40    22    43    1
    41    23    44    1
    42    24    45    1
    43    26    46    1
    44    27    47    1
    45    28    48    1
    46    29    49    1
    47    30    50    1
    48     1    31    1
    49     1    27    1
    50     2    32    1
    51     2    28    1
    52     4    34    1
    53     4    30    1
