@<TRIPOS>MOLECULE
*****
 50 53 0 0 0
SMALL
GASTEIGER

@<TRIPOS>ATOM
     1 C         -0.333345   -1.328615   1.701313 C.3        1 UNL1     0.1889
     2 C         -0.463255   -0.975098   0.195296 C.3        1 UNL1     0.1342
     3 C         -1.903979   -0.961258   -0.338172 C.3        1 UNL1     0.1174
     4 C         -2.791233   -2.02004   0.321281 C.3        1 UNL1     0.1456
     5 C         -2.639926   -2.04599   1.853207 C.3        1 UNL1     0.2326
     6 O         -1.275267   -2.265247   2.203207 O.3        1 UNL1     -0.3076
     7 O         -3.214077   -0.898702   2.505436 O.3        1 UNL1     -0.4605
     8 C         -3.72401   -1.114124   3.773147 C.ar        1 UNL1     0.1310
     9 C         -4.541096   -2.18665   4.146454 C.ar        1 UNL1     0.0226
     10 C         -4.994228   -2.327054   5.463595 C.ar        1 UNL1     0.1343
     11 C         -4.621352   -1.410392   6.445702 C.ar        1 UNL1     0.1007
     12 C         -3.839443   -0.312744   6.076147 C.ar        1 UNL1     0.1389
     13 C         -3.386128   -0.170356   4.751133 C.ar        1 UNL1     0.0229
     14 C         -5.00219   -1.556318   7.869718 C.2        1 UNL1     0.1740
     15 C         -4.332672   -0.608755   8.821254 C.3        1 UNL1     0.0520
     16 C         -4.262431   0.763339   8.16522 C.3        1 UNL1     0.1322
     17 O         -3.503824   0.706286   6.937079 O.3        1 UNL1     -0.4828
     18 C         -5.621212   1.456689   8.039908 C.ar        1 UNL1     -0.0067
     19 C         -5.999868   2.020063   6.80401 C.ar        1 UNL1     -0.0516
     20 C         -7.214679   2.702428   6.667726 C.ar        1 UNL1     -0.0198
     21 C         -8.054345   2.834335   7.759234 C.ar        1 UNL1     0.1169
     22 C         -7.72448   2.261611   8.980714 C.ar        1 UNL1     -0.0198
     23 C         -6.518222   1.563301   9.112476 C.ar        1 UNL1     -0.0516
     24 O         -9.211569   3.538142   7.598336 O.3        1 UNL1     -0.5068
     25 O         -5.751585   -2.437614   8.282283 O.2        1 UNL1     -0.2917
     26 O         -5.789264   -3.394913   5.762226 O.3        1 UNL1     -0.5058
     27 O         -0.227291   -0.190747   2.542024 O.3        1 UNL1     -0.3648
     28 O         0.26664   -1.953864   -0.567579 O.3        1 UNL1     -0.3841
     29 O         -2.460389   0.352778   -0.26169 O.3        1 UNL1     -0.3863
     30 O         -2.444622   -3.320944   -0.201404 O.3        1 UNL1     -0.3829
     31 H         0.626891   -1.842282   1.820365 H        1 UNL1     0.0937
     32 H         0.0   0.0   0.0 H        1 UNL1     0.0671
     33 H         -1.866958   -1.200489   -1.410142 H        1 UNL1     0.0649
     34 H         -3.841166   -1.840785   0.064551 H        1 UNL1     0.0683
     35 H         -3.195412   -2.941512   2.158746 H        1 UNL1     0.1085
     36 H         -4.820033   -2.962987   3.442454 H        1 UNL1     0.0691
     37 H         -2.779498   0.693738   4.488768 H        1 UNL1     0.0691
     38 H         -3.330596   -0.999613   9.027653 H        1 UNL1     0.0385
     39 H         -4.89286   -0.589561   9.762316 H        1 UNL1     0.0385
     40 H         -3.6671   1.407958   8.825953 H        1 UNL1     0.0789
     41 H         -5.354114   1.938109   5.934564 H        1 UNL1     0.0623
     42 H         -7.489952   3.142719   5.71254 H        1 UNL1     0.0654
     43 H         -8.381634   2.345953   9.838004 H        1 UNL1     0.0654
     44 H         -6.297385   1.119564   10.078485 H        1 UNL1     0.0623
     45 H         -8.984948   4.445412   7.337144 H        1 UNL1     0.2921
     46 H         -5.385159   -3.908587   6.479338 H        1 UNL1     0.2922
     47 H         0.516283   0.362404   2.264566 H        1 UNL1     0.2126
     48 H         1.199439   -1.889355   -0.285698 H        1 UNL1     0.2101
     49 H         -2.020885   0.935024   -0.901705 H        1 UNL1     0.2100
     50 H         -2.677714   -3.335503   -1.152807 H        1 UNL1     0.2102
@<TRIPOS>BOND
     1     1     2    1
     2     1     6    1
     3     2     3    1
     4     3     4    1
     5     3    29    1
     6     3    33    1
     7     4     5    1
     8     5     6    1
     9     5     7    1
    10     5    35    1
    11     7     8    1
    12     8     9   ar
    13     8    13   ar
    14     9    10   ar
    15     9    36    1
    16    10    11   ar
    17    10    26    1
    18    11    12   ar
    19    11    14    1
    20    12    13   ar
    21    12    17    1
    22    13    37    1
    23    14    15    1
    24    14    25    2
    25    15    16    1
    26    15    38    1
    27    15    39    1
    28    16    17    1
    29    16    18    1
    30    16    40    1
    31    18    19   ar
    32    18    23   ar
    33    19    20   ar
    34    19    41    1
    35    20    21   ar
    36    20    42    1
    37    21    22   ar
    38    21    24    1
    39    22    23   ar
    40    22    43    1
    41    23    44    1
    42    24    45    1
    43    26    46    1
    44    27    47    1
    45    28    48    1
    46    29    49    1
    47    30    50    1
    48     1    31    1
    49     1    27    1
    50     2    32    1
    51     2    28    1
    52     4    34    1
    53     4    30    1
