@<TRIPOS>MOLECULE
*****
 50 53 0 0 0
SMALL
GASTEIGER

@<TRIPOS>ATOM
     1 C         -0.17754   -2.028676   0.789784 C.3        1 UNL1     0.1889
     2 C         -0.78447   -0.653762   0.400953 C.3        1 UNL1     0.1342
     3 C         -1.507671   0.074364   1.544315 C.3        1 UNL1     0.1174
     4 C         -2.226022   -0.883861   2.497675 C.3        1 UNL1     0.1456
     5 C         -1.345107   -2.077554   2.909316 C.3        1 UNL1     0.2326
     6 O         -0.906032   -2.780515   1.749175 O.3        1 UNL1     -0.3076
     7 O         -0.268524   -1.717329   3.793922 O.3        1 UNL1     -0.4605
     8 C         0.593839   -2.739677   4.147 C.ar        1 UNL1     0.1310
     9 C         0.522913   -4.056901   3.680963 C.ar        1 UNL1     0.0226
     10 C         1.456182   -5.018892   4.085295 C.ar        1 UNL1     0.1343
     11 C         2.498155   -4.680794   4.947747 C.ar        1 UNL1     0.1007
     12 C         2.555403   -3.378799   5.452042 C.ar        1 UNL1     0.1389
     13 C         1.615337   -2.412373   5.047408 C.ar        1 UNL1     0.0229
     14 C         3.55992   -5.63579   5.341181 C.2        1 UNL1     0.1740
     15 C         4.718701   -5.045985   6.090118 C.3        1 UNL1     0.0520
     16 C         4.181575   -4.020066   7.078523 C.3        1 UNL1     0.1322
     17 O         3.473528   -2.966003   6.389545 O.3        1 UNL1     -0.4828
     18 C         3.41616   -4.63676   8.251789 C.ar        1 UNL1     -0.0067
     19 C         4.087011   -5.506933   9.135515 C.ar        1 UNL1     -0.0516
     20 C         3.405259   -6.124975   10.190598 C.ar        1 UNL1     -0.0198
     21 C         2.053984   -5.887305   10.367784 C.ar        1 UNL1     0.1169
     22 C         1.373319   -5.009377   9.534251 C.ar        1 UNL1     -0.0198
     23 C         2.058966   -4.37687   8.490278 C.ar        1 UNL1     -0.0516
     24 O         1.415137   -6.536387   11.38315 O.3        1 UNL1     -0.5068
     25 O         3.556525   -6.820984   5.019018 O.2        1 UNL1     -0.2917
     26 O         1.330576   -6.285993   3.595128 O.3        1 UNL1     -0.5058
     27 O         1.202876   -1.966707   1.111344 O.3        1 UNL1     -0.3648
     28 O         -1.745492   -0.860465   -0.65091 O.3        1 UNL1     -0.3841
     29 O         -0.618302   0.964996   2.22102 O.3        1 UNL1     -0.3863
     30 O         -3.417834   -1.386368   1.85521 O.3        1 UNL1     -0.3829
     31 H         -0.217235   -2.653608   -0.109083 H        1 UNL1     0.0937
     32 H         0.0   0.0   0.0 H        1 UNL1     0.0671
     33 H         -2.279674   0.716456   1.097717 H        1 UNL1     0.0649
     34 H         -2.548668   -0.345769   3.395872 H        1 UNL1     0.0683
     35 H         -2.034481   -2.743179   3.443718 H        1 UNL1     0.1085
     36 H         -0.229901   -4.368809   2.965348 H        1 UNL1     0.0691
     37 H         1.68109   -1.406027   5.455375 H        1 UNL1     0.0691
     38 H         5.383209   -4.577327   5.356419 H        1 UNL1     0.0385
     39 H         5.271391   -5.850289   6.587519 H        1 UNL1     0.0385
     40 H         5.049278   -3.519185   7.528777 H        1 UNL1     0.0789
     41 H         5.14547   -5.716958   9.01221 H        1 UNL1     0.0623
     42 H         3.931024   -6.803218   10.858108 H        1 UNL1     0.0654
     43 H         0.318518   -4.804433   9.673185 H        1 UNL1     0.0654
     44 H         1.498196   -3.688938   7.864874 H        1 UNL1     0.0623
     45 H         1.642794   -7.479066   11.335756 H        1 UNL1     0.2921
     46 H         0.455145   -6.3909   3.190125 H        1 UNL1     0.2922
     47 H         1.650437   -1.324082   0.543382 H        1 UNL1     0.2126
     48 H         -2.323712   -0.073502   -0.660085 H        1 UNL1     0.2101
     49 H         -0.769038   0.917512   3.178526 H        1 UNL1     0.2100
     50 H         -3.140306   -1.977977   1.125354 H        1 UNL1     0.2102
@<TRIPOS>BOND
     1     1     2    1
     2     1     6    1
     3     2     3    1
     4     3     4    1
     5     3    29    1
     6     3    33    1
     7     4     5    1
     8     5     6    1
     9     5     7    1
    10     5    35    1
    11     7     8    1
    12     8     9   ar
    13     8    13   ar
    14     9    10   ar
    15     9    36    1
    16    10    11   ar
    17    10    26    1
    18    11    12   ar
    19    11    14    1
    20    12    13   ar
    21    12    17    1
    22    13    37    1
    23    14    15    1
    24    14    25    2
    25    15    16    1
    26    15    38    1
    27    15    39    1
    28    16    17    1
    29    16    18    1
    30    16    40    1
    31    18    19   ar
    32    18    23   ar
    33    19    20   ar
    34    19    41    1
    35    20    21   ar
    36    20    42    1
    37    21    22   ar
    38    21    24    1
    39    22    23   ar
    40    22    43    1
    41    23    44    1
    42    24    45    1
    43    26    46    1
    44    27    47    1
    45    28    48    1
    46    29    49    1
    47    30    50    1
    48     1    31    1
    49     1    27    1
    50     2    32    1
    51     2    28    1
    52     4    34    1
    53     4    30    1
