@<TRIPOS>MOLECULE
*****
 50 53 0 0 0
SMALL
GASTEIGER

@<TRIPOS>ATOM
     1 C         -0.240561   -1.282356   1.751713 C.3        1 UNL1     0.1889
     2 C         -0.412441   -0.988556   0.237091 C.3        1 UNL1     0.1342
     3 C         -1.860855   -1.061987   -0.270026 C.3        1 UNL1     0.1174
     4 C         -2.684975   -2.137928   0.441518 C.3        1 UNL1     0.1456
     5 C         -2.507068   -2.102806   1.970399 C.3        1 UNL1     0.2326
     6 O         -1.127787   -2.244497   2.302629 O.3        1 UNL1     -0.3076
     7 O         -3.124843   -0.961905   2.593311 O.3        1 UNL1     -0.4605
     8 C         -3.603022   -1.156779   3.876626 C.ar        1 UNL1     0.1310
     9 C         -4.361486   -2.253104   4.301013 C.ar        1 UNL1     0.0226
     10 C         -4.785725   -2.368671   5.630136 C.ar        1 UNL1     0.1343
     11 C         -4.441224   -1.401584   6.573483 C.ar        1 UNL1     0.1007
     12 C         -3.719037   -0.281717   6.15262 C.ar        1 UNL1     0.1389
     13 C         -3.294838   -0.164436   4.815559 C.ar        1 UNL1     0.0229
     14 C         -4.791248   -1.515501   8.008286 C.2        1 UNL1     0.1740
     15 C         -4.152469   -0.50458   8.91468 C.3        1 UNL1     0.0520
     16 C         -4.158894   0.845517   8.21101 C.3        1 UNL1     0.1322
     17 O         -3.41864   0.781557   6.972057 O.3        1 UNL1     -0.4828
     18 C         -5.551246   1.468898   8.086608 C.ar        1 UNL1     -0.0067
     19 C         -5.975611   1.972659   6.839872 C.ar        1 UNL1     -0.0516
     20 C         -7.223818   2.591567   6.702411 C.ar        1 UNL1     -0.0198
     21 C         -8.051912   2.719173   7.803231 C.ar        1 UNL1     0.1169
     22 C         -7.676047   2.203279   9.036689 C.ar        1 UNL1     -0.0198
     23 C         -6.435685   1.567898   9.170287 C.ar        1 UNL1     -0.0516
     24 O         -9.244018   3.361419   7.639506 O.3        1 UNL1     -0.5068
     25 O         -5.490639   -2.416347   8.464151 O.2        1 UNL1     -0.2917
     26 O         -5.523614   -3.461903   5.979346 O.3        1 UNL1     -0.5058
     27 O         -0.175419   -0.111892   2.550812 O.3        1 UNL1     -0.3648
     28 O         0.350916   -1.957713   -0.505019 O.3        1 UNL1     -0.3841
     29 O         -2.478543   0.225983   -0.228471 O.3        1 UNL1     -0.3863
     30 O         -2.284886   -3.438444   -0.042505 O.3        1 UNL1     -0.3829
     31 H         0.745147   -1.745285   1.870684 H        1 UNL1     0.0937
     32 H         0.0   0.0   0.0 H        1 UNL1     0.0671
     33 H         -1.830239   -1.336708   -1.333657 H        1 UNL1     0.0649
     34 H         -3.746457   -2.017929   0.198089 H        1 UNL1     0.0683
     35 H         -3.013613   -3.012437   2.316613 H        1 UNL1     0.1085
     36 H         -4.614346   -3.065932   3.629081 H        1 UNL1     0.0691
     37 H         -2.734742   0.717726   4.512944 H        1 UNL1     0.0691
     38 H         -3.129548   -0.84006   9.116209 H        1 UNL1     0.0385
     39 H         -4.697445   -0.479052   9.864485 H        1 UNL1     0.0385
     40 H         -3.584435   1.540334   8.838502 H        1 UNL1     0.0789
     41 H         -5.340159   1.892994   5.962658 H        1 UNL1     0.0623
     42 H         -7.534676   2.986604   5.738397 H        1 UNL1     0.0654
     43 H         -8.323188   2.284387   9.901871 H        1 UNL1     0.0654
     44 H         -6.17886   1.167185   10.146154 H        1 UNL1     0.0623
     45 H         -9.065196   4.271271   7.35157 H        1 UNL1     0.2921
     46 H         -5.084971   -3.929004   6.707922 H        1 UNL1     0.2922
     47 H         0.533132   0.46788   2.238273 H        1 UNL1     0.2126
     48 H         1.286166   -1.827228   -0.255995 H        1 UNL1     0.2101
     49 H         -2.0785   0.805537   -0.89621 H        1 UNL1     0.2100
     50 H         -2.537938   -3.499615   -0.986928 H        1 UNL1     0.2102
@<TRIPOS>BOND
     1     1     2    1
     2     1     6    1
     3     2     3    1
     4     3     4    1
     5     3    29    1
     6     3    33    1
     7     4     5    1
     8     5     6    1
     9     5     7    1
    10     5    35    1
    11     7     8    1
    12     8     9   ar
    13     8    13   ar
    14     9    10   ar
    15     9    36    1
    16    10    11   ar
    17    10    26    1
    18    11    12   ar
    19    11    14    1
    20    12    13   ar
    21    12    17    1
    22    13    37    1
    23    14    15    1
    24    14    25    2
    25    15    16    1
    26    15    38    1
    27    15    39    1
    28    16    17    1
    29    16    18    1
    30    16    40    1
    31    18    19   ar
    32    18    23   ar
    33    19    20   ar
    34    19    41    1
    35    20    21   ar
    36    20    42    1
    37    21    22   ar
    38    21    24    1
    39    22    23   ar
    40    22    43    1
    41    23    44    1
    42    24    45    1
    43    26    46    1
    44    27    47    1
    45    28    48    1
    46    29    49    1
    47    30    50    1
    48     1    31    1
    49     1    27    1
    50     2    32    1
    51     2    28    1
    52     4    34    1
    53     4    30    1
