@<TRIPOS>MOLECULE
*****
 50 53 0 0 0
SMALL
GASTEIGER

@<TRIPOS>ATOM
     1 C         -0.037637   0.584382   2.104254 C.3        1 UNL1     0.1889
     2 C         0.303051   0.856865   0.614414 C.3        1 UNL1     0.1342
     3 C         1.782126   1.170752   0.341876 C.3        1 UNL1     0.1174
     4 C         2.440555   1.958773   1.477046 C.3        1 UNL1     0.1456
     5 C         2.120216   1.373911   2.864736 C.3        1 UNL1     0.2326
     6 O         0.708392   1.326167   3.057979 O.3        1 UNL1     -0.3076
     7 O         2.769168   0.11491   3.119883 O.3        1 UNL1     -0.4605
     8 C         3.655344   0.093925   4.181853 C.ar        1 UNL1     0.1310
     9 C         4.383246   -1.022284   4.607926 C.ar        1 UNL1     0.0226
     10 C         5.271524   -0.938342   5.68673 C.ar        1 UNL1     0.1343
     11 C         5.471425   0.270938   6.3512 C.ar        1 UNL1     0.1007
     12 C         4.719761   1.38253   5.961138 C.ar        1 UNL1     0.1389
     13 C         3.824708   1.297218   4.878072 C.ar        1 UNL1     0.0229
     14 C         6.459073   0.43639   7.442682 C.2        1 UNL1     0.1740
     15 C         6.701989   1.847915   7.89005 C.3        1 UNL1     0.0520
     16 C         5.367094   2.579291   7.923235 C.3        1 UNL1     0.1322
     17 O         4.757158   2.592911   6.613707 O.3        1 UNL1     -0.4828
     18 C         4.439713   2.11818   9.050207 C.ar        1 UNL1     -0.0067
     19 C         4.050466   0.764559   9.116621 C.ar        1 UNL1     -0.0516
     20 C         3.165918   0.319216   10.10617 C.ar        1 UNL1     -0.0198
     21 C         2.659001   1.217037   11.028546 C.ar        1 UNL1     0.1169
     22 C         3.049668   2.549647   11.009381 C.ar        1 UNL1     -0.0198
     23 C         3.948566   2.991539   10.031233 C.ar        1 UNL1     -0.0516
     24 O         1.770572   0.754392   11.954319 O.3        1 UNL1     -0.5068
     25 O         7.109341   -0.493468   7.912787 O.2        1 UNL1     -0.2917
     26 O         5.95017   -2.063882   6.053042 O.3        1 UNL1     -0.5058
     27 O         -0.080441   -0.7955   2.431181 O.3        1 UNL1     -0.3648
     28 O         -0.46438   1.991452   0.171165 O.3        1 UNL1     -0.3841
     29 O         2.499214   -0.018636   0.005317 O.3        1 UNL1     -0.3863
     30 O         1.980726   3.327086   1.432701 O.3        1 UNL1     -0.3829
     31 H         -1.065678   0.930022   2.258344 H        1 UNL1     0.0937
     32 H         0.0   0.0   0.0 H        1 UNL1     0.0671
     33 H         1.830789   1.804355   -0.554729 H        1 UNL1     0.0649
     34 H         3.526827   1.98093   1.335898 H        1 UNL1     0.0683
     35 H         2.512765   2.122482   3.564326 H        1 UNL1     0.1085
     36 H         4.314297   -1.976729   4.097631 H        1 UNL1     0.0691
     37 H         3.25052   2.176748   4.594826 H        1 UNL1     0.0691
     38 H         7.387593   2.309703   7.171562 H        1 UNL1     0.0385
     39 H         7.191343   1.834704   8.869915 H        1 UNL1     0.0385
     40 H         5.581683   3.635091   8.137146 H        1 UNL1     0.0789
     41 H         4.427218   0.04191   8.398646 H        1 UNL1     0.0623
     42 H         2.864051   -0.724704   10.13962 H        1 UNL1     0.0654
     43 H         2.670501   3.258139   11.736142 H        1 UNL1     0.0654
     44 H         4.240284   4.037146   10.052431 H        1 UNL1     0.0623
     45 H         2.04422   -0.137589   12.223027 H        1 UNL1     0.2921
     46 H         5.426656   -2.560647   6.701554 H        1 UNL1     0.2922
     47 H         -0.772061   -1.239236   1.920672 H        1 UNL1     0.2126
     48 H         -1.17979   2.11745   0.823886 H        1 UNL1     0.2101
     49 H         2.099153   -0.435739   -0.774279 H        1 UNL1     0.2100
     50 H         1.533647   3.467186   0.572349 H        1 UNL1     0.2102
@<TRIPOS>BOND
     1     1     2    1
     2     1     6    1
     3     2     3    1
     4     3     4    1
     5     3    29    1
     6     3    33    1
     7     4     5    1
     8     5     6    1
     9     5     7    1
    10     5    35    1
    11     7     8    1
    12     8     9   ar
    13     8    13   ar
    14     9    10   ar
    15     9    36    1
    16    10    11   ar
    17    10    26    1
    18    11    12   ar
    19    11    14    1
    20    12    13   ar
    21    12    17    1
    22    13    37    1
    23    14    15    1
    24    14    25    2
    25    15    16    1
    26    15    38    1
    27    15    39    1
    28    16    17    1
    29    16    18    1
    30    16    40    1
    31    18    19   ar
    32    18    23   ar
    33    19    20   ar
    34    19    41    1
    35    20    21   ar
    36    20    42    1
    37    21    22   ar
    38    21    24    1
    39    22    23   ar
    40    22    43    1
    41    23    44    1
    42    24    45    1
    43    26    46    1
    44    27    47    1
    45    28    48    1
    46    29    49    1
    47    30    50    1
    48     1    31    1
    49     1    27    1
    50     2    32    1
    51     2    28    1
    52     4    34    1
    53     4    30    1
