@<TRIPOS>MOLECULE
*****
 50 53 0 0 0
SMALL
GASTEIGER

@<TRIPOS>ATOM
     1 C         -0.370617   -1.397844   1.636911 C.3        1 UNL1     0.1889
     2 C         -0.487832   -0.971297   0.148873 C.3        1 UNL1     0.1342
     3 C         -1.926391   -0.89666   -0.385396 C.3        1 UNL1     0.1174
     4 C         -2.841364   -1.962615   0.22262 C.3        1 UNL1     0.1456
     5 C         -2.694689   -2.063796   1.751873 C.3        1 UNL1     0.2326
     6 O         -1.336802   -2.333104   2.09317 O.3        1 UNL1     -0.3076
     7 O         -3.241841   -0.934241   2.456181 O.3        1 UNL1     -0.4605
     8 C         -3.770887   -1.197922   3.706825 C.ar        1 UNL1     0.1310
     9 C         -4.61993   -2.265164   4.018949 C.ar        1 UNL1     0.0226
     10 C         -5.090752   -2.4579   5.323204 C.ar        1 UNL1     0.1343
     11 C         -4.704434   -1.600949   6.352881 C.ar        1 UNL1     0.1007
     12 C         -3.889933   -0.507864   6.045413 C.ar        1 UNL1     0.1389
     13 C         -3.41879   -0.312765   4.733394 C.ar        1 UNL1     0.0229
     14 C         -5.104288   -1.806391   7.764286 C.2        1 UNL1     0.1740
     15 C         -4.420304   -0.925053   8.767759 C.3        1 UNL1     0.0520
     16 C         -4.306866   0.475238   8.18101 C.3        1 UNL1     0.1322
     17 O         -3.536854   0.458249   6.958773 O.3        1 UNL1     -0.4828
     18 C         -5.645472   1.21015   8.077275 C.ar        1 UNL1     -0.0067
     19 C         -5.660688   2.574654   7.722154 C.ar        1 UNL1     -0.0516
     20 C         -6.86362   3.288506   7.664435 C.ar        1 UNL1     -0.0198
     21 C         -8.054599   2.652565   7.966055 C.ar        1 UNL1     0.1169
     22 C         -8.075418   1.301381   8.286536 C.ar        1 UNL1     -0.0198
     23 C         -6.874578   0.582733   8.326354 C.ar        1 UNL1     -0.0516
     24 O         -9.202007   3.389422   7.936077 O.3        1 UNL1     -0.5068
     25 O         -5.881048   -2.686451   8.125705 O.2        1 UNL1     -0.2917
     26 O         -5.916827   -3.517405   5.561185 O.3        1 UNL1     -0.5058
     27 O         -0.238496   -0.30345   2.530014 O.3        1 UNL1     -0.3648
     28 O         0.219486   -1.931285   -0.657867 O.3        1 UNL1     -0.3841
     29 O         -2.450186   0.425838   -0.248389 O.3        1 UNL1     -0.3863
     30 O         -2.525829   -3.245944   -0.359783 O.3        1 UNL1     -0.3829
     31 H         0.576254   -1.940288   1.733188 H        1 UNL1     0.0937
     32 H         0.0   0.0   0.0 H        1 UNL1     0.0671
     33 H         -1.892567   -1.08645   -1.467318 H        1 UNL1     0.0649
     34 H         -3.885856   -1.745453   -0.026934 H        1 UNL1     0.0683
     35 H         -3.27303   -2.958474   2.014457 H        1 UNL1     0.1085
     36 H         -4.911641   -2.998199   3.274848 H        1 UNL1     0.0691
     37 H         -2.786807   0.546572   4.519786 H        1 UNL1     0.0691
     38 H         -3.431158   -1.352352   8.964054 H        1 UNL1     0.0385
     39 H         -4.989886   -0.937086   9.703286 H        1 UNL1     0.0385
     40 H         -3.701895   1.07039   8.878381 H        1 UNL1     0.0789
     41 H         -4.738304   3.098929   7.489786 H        1 UNL1     0.0623
     42 H         -6.861007   4.34328   7.40089 H        1 UNL1     0.0654
     43 H         -9.004057   0.789837   8.509834 H        1 UNL1     0.0654
     44 H         -6.92913   -0.473887   8.57012 H        1 UNL1     0.0623
     45 H         -9.154196   4.060072   8.636548 H        1 UNL1     0.2921
     46 H         -5.703687   -3.906367   6.42414 H        1 UNL1     0.2922
     47 H         0.50664   0.254866   2.267495 H        1 UNL1     0.2126
     48 H         1.171667   -1.779367   -0.502936 H        1 UNL1     0.2101
     49 H         -2.998636   0.482478   0.550227 H        1 UNL1     0.2100
     50 H         -2.782996   -3.219645   -1.304709 H        1 UNL1     0.2102
@<TRIPOS>BOND
     1     1     2    1
     2     1     6    1
     3     2     3    1
     4     3     4    1
     5     3    29    1
     6     3    33    1
     7     4     5    1
     8     5     6    1
     9     5     7    1
    10     5    35    1
    11     7     8    1
    12     8     9   ar
    13     8    13   ar
    14     9    10   ar
    15     9    36    1
    16    10    11   ar
    17    10    26    1
    18    11    12   ar
    19    11    14    1
    20    12    13   ar
    21    12    17    1
    22    13    37    1
    23    14    15    1
    24    14    25    2
    25    15    16    1
    26    15    38    1
    27    15    39    1
    28    16    17    1
    29    16    18    1
    30    16    40    1
    31    18    19   ar
    32    18    23   ar
    33    19    20   ar
    34    19    41    1
    35    20    21   ar
    36    20    42    1
    37    21    22   ar
    38    21    24    1
    39    22    23   ar
    40    22    43    1
    41    23    44    1
    42    24    45    1
    43    26    46    1
    44    27    47    1
    45    28    48    1
    46    29    49    1
    47    30    50    1
    48     1    31    1
    49     1    27    1
    50     2    32    1
    51     2    28    1
    52     4    34    1
    53     4    30    1
