@<TRIPOS>MOLECULE
*****
 50 53 0 0 0
SMALL
GASTEIGER

@<TRIPOS>ATOM
     1 C         -0.315603   -1.348306   1.689162 C.3        1 UNL1     0.1889
     2 C         -0.459826   -0.978059   0.188477 C.3        1 UNL1     0.1342
     3 C         -1.905374   -0.960758   -0.331674 C.3        1 UNL1     0.1174
     4 C         -2.78481   -2.028481   0.323824 C.3        1 UNL1     0.1456
     5 C         -2.619502   -2.071437   1.853919 C.3        1 UNL1     0.2326
     6 O         -1.251345   -2.292207   2.188994 O.3        1 UNL1     -0.3076
     7 O         -3.1896   -0.932598   2.524259 O.3        1 UNL1     -0.4605
     8 C         -3.688021   -1.16331   3.793856 C.ar        1 UNL1     0.1310
     9 C         -4.500183   -2.241336   4.162033 C.ar        1 UNL1     0.0226
     10 C         -4.941482   -2.39751   5.481415 C.ar        1 UNL1     0.1343
     11 C         -4.561339   -1.49154   6.470632 C.ar        1 UNL1     0.1007
     12 C         -3.784359   -0.388493   6.106802 C.ar        1 UNL1     0.1389
     13 C         -3.342948   -0.230245   4.77957 C.ar        1 UNL1     0.0229
     14 C         -4.929398   -1.654342   7.896178 C.2        1 UNL1     0.1740
     15 C         -4.25294   -0.716651   8.852572 C.3        1 UNL1     0.0520
     16 C         -4.190534   0.662963   8.211692 C.3        1 UNL1     0.1322
     17 O         -3.442691   0.621163   6.976356 O.3        1 UNL1     -0.4828
     18 C         -5.551401   1.355531   8.106276 C.ar        1 UNL1     -0.0067
     19 C         -5.940588   1.934835   6.88106 C.ar        1 UNL1     -0.0516
     20 C         -7.157557   2.616822   6.763409 C.ar        1 UNL1     -0.0198
     21 C         -7.988935   2.732522   7.863069 C.ar        1 UNL1     0.1169
     22 C         -7.648633   2.143975   9.074121 C.ar        1 UNL1     -0.0198
     23 C         -6.440226   1.446091   9.187102 C.ar        1 UNL1     -0.0516
     24 O         -9.148546   3.436382   7.72065 O.3        1 UNL1     -0.5068
     25 O         -5.67381   -2.541492   8.305203 O.2        1 UNL1     -0.2917
     26 O         -5.732258   -3.46998   5.774783 O.3        1 UNL1     -0.5058
     27 O         -0.203791   -0.219805   2.54167 O.3        1 UNL1     -0.3648
     28 O         0.264719   -1.946863   -0.59201 O.3        1 UNL1     -0.3841
     29 O         -2.463258   0.351343   -0.235298 O.3        1 UNL1     -0.3863
     30 O         -2.440806   -3.322791   -0.21665 O.3        1 UNL1     -0.3829
     31 H         0.646535   -1.86158   1.793667 H        1 UNL1     0.0937
     32 H         0.0   0.0   0.0 H        1 UNL1     0.0671
     33 H         -1.877727   -1.187819   -1.406569 H        1 UNL1     0.0649
     34 H         -3.837338   -1.848204   0.078696 H        1 UNL1     0.0683
     35 H         -3.170683   -2.971332   2.154366 H        1 UNL1     0.1085
     36 H         -4.784149   -3.010019   3.451675 H        1 UNL1     0.0691
     37 H         -2.739946   0.637759   4.521789 H        1 UNL1     0.0691
     38 H         -3.248502   -1.108243   9.045666 H        1 UNL1     0.0385
     39 H         -4.804844   -0.70911   9.798682 H        1 UNL1     0.0385
     40 H         -3.59037   1.300936   8.874499 H        1 UNL1     0.0789
     41 H         -5.301475   1.865749   6.00561 H        1 UNL1     0.0623
     42 H         -7.440978   3.069456   5.81641 H        1 UNL1     0.0654
     43 H         -8.299245   2.215593   9.937536 H        1 UNL1     0.0654
     44 H         -6.211149   0.989769   10.145297 H        1 UNL1     0.0623
     45 H         -8.925249   4.349103   7.476118 H        1 UNL1     0.2921
     46 H         -5.322364   -3.989738   6.484185 H        1 UNL1     0.2922
     47 H         0.534481   0.339276   2.261952 H        1 UNL1     0.2126
     48 H         1.202675   -1.871564   -0.330667 H        1 UNL1     0.2101
     49 H         -2.030759   0.941485   -0.87285 H        1 UNL1     0.2100
     50 H         -2.682535   -3.327034   -1.165998 H        1 UNL1     0.2102
@<TRIPOS>BOND
     1     1     2    1
     2     1     6    1
     3     2     3    1
     4     3     4    1
     5     3    29    1
     6     3    33    1
     7     4     5    1
     8     5     6    1
     9     5     7    1
    10     5    35    1
    11     7     8    1
    12     8     9   ar
    13     8    13   ar
    14     9    10   ar
    15     9    36    1
    16    10    11   ar
    17    10    26    1
    18    11    12   ar
    19    11    14    1
    20    12    13   ar
    21    12    17    1
    22    13    37    1
    23    14    15    1
    24    14    25    2
    25    15    16    1
    26    15    38    1
    27    15    39    1
    28    16    17    1
    29    16    18    1
    30    16    40    1
    31    18    19   ar
    32    18    23   ar
    33    19    20   ar
    34    19    41    1
    35    20    21   ar
    36    20    42    1
    37    21    22   ar
    38    21    24    1
    39    22    23   ar
    40    22    43    1
    41    23    44    1
    42    24    45    1
    43    26    46    1
    44    27    47    1
    45    28    48    1
    46    29    49    1
    47    30    50    1
    48     1    31    1
    49     1    27    1
    50     2    32    1
    51     2    28    1
    52     4    34    1
    53     4    30    1
