@<TRIPOS>MOLECULE
*****
 50 53 0 0 0
SMALL
GASTEIGER

@<TRIPOS>ATOM
     1 C         -0.404801   -1.406588   1.62125 C.3        1 UNL1     0.1889
     2 C         -0.433076   -1.000415   0.123196 C.3        1 UNL1     0.1342
     3 C         -1.827234   -1.025844   -0.521894 C.3        1 UNL1     0.1174
     4 C         -2.714898   -2.145543   0.027145 C.3        1 UNL1     0.1456
     5 C         -2.681929   -2.224799   1.564348 C.3        1 UNL1     0.2326
     6 O         -1.340133   -2.400479   2.013335 O.3        1 UNL1     -0.3076
     7 O         -3.355546   -1.128695   2.209418 O.3        1 UNL1     -0.4605
     8 C         -3.959069   -1.416321   3.420434 C.ar        1 UNL1     0.1310
     9 C         -4.758613   -2.534157   3.682105 C.ar        1 UNL1     0.0226
     10 C         -5.312806   -2.746762   4.950005 C.ar        1 UNL1     0.1343
     11 C         -5.061089   -1.858221   5.994502 C.ar        1 UNL1     0.1007
     12 C         -4.297933   -0.716814   5.734566 C.ar        1 UNL1     0.1389
     13 C         -3.742989   -0.501892   4.458918 C.ar        1 UNL1     0.0229
     14 C         -5.551903   -2.078018   7.374699 C.2        1 UNL1     0.1740
     15 C         -5.003586   -1.145929   8.414943 C.3        1 UNL1     0.0520
     16 C         -4.936839   0.254041   7.820312 C.3        1 UNL1     0.1322
     17 O         -4.077579   0.277554   6.659197 O.3        1 UNL1     -0.4828
     18 C         -6.308434   0.89919   7.607629 C.ar        1 UNL1     -0.0067
     19 C         -6.605857   1.50113   6.367701 C.ar        1 UNL1     -0.0516
     20 C         -7.832734   2.141358   6.155936 C.ar        1 UNL1     -0.0198
     21 C         -8.765549   2.192759   7.17625 C.ar        1 UNL1     0.1169
     22 C         -8.515101   1.580231   8.397284 C.ar        1 UNL1     -0.0198
     23 C         -7.295689   0.923953   8.603174 C.ar        1 UNL1     -0.0516
     24 O         -9.933939   2.857696   6.945761 O.3        1 UNL1     -0.5068
     25 O         -6.295296   -3.003966   7.688504 O.2        1 UNL1     -0.2917
     26 O         -6.084417   -3.855972   5.139359 O.3        1 UNL1     -0.5058
     27 O         -0.415151   -0.298889   2.507638 O.3        1 UNL1     -0.3648
     28 O         0.396733   -1.917475   -0.613773 O.3        1 UNL1     -0.3841
     29 O         -2.445934   0.259896   -0.443063 O.3        1 UNL1     -0.3863
     30 O         -2.271112   -3.409538   -0.512356 O.3        1 UNL1     -0.3829
     31 H         0.565243   -1.884052   1.797657 H        1 UNL1     0.0937
     32 H         0.0   0.0   0.0 H        1 UNL1     0.0671
     33 H         -1.696504   -1.221402   -1.595387 H        1 UNL1     0.0649
     34 H         -3.748686   -2.000323   -0.305415 H        1 UNL1     0.0683
     35 H         -3.218968   -3.153903   1.792895 H        1 UNL1     0.1085
     36 H         -4.945659   -3.290593   2.927824 H        1 UNL1     0.0691
     37 H         -3.153444   0.395115   4.281975 H        1 UNL1     0.0691
     38 H         -4.006526   -1.506192   8.689912 H        1 UNL1     0.0385
     39 H         -5.639964   -1.187617   9.305484 H        1 UNL1     0.0385
     40 H         -4.425671   0.892958   8.553123 H        1 UNL1     0.0789
     41 H         -5.88678   1.482373   5.553928 H        1 UNL1     0.0623
     42 H         -8.045507   2.612119   5.199315 H        1 UNL1     0.0654
     43 H         -9.244613   1.601465   9.198078 H        1 UNL1     0.0654
     44 H         -7.137871   0.447174   9.565785 H        1 UNL1     0.0623
     45 H         -9.727016   3.790408   6.772704 H        1 UNL1     0.2921
     46 H         -5.72133   -4.381864   5.86944 H        1 UNL1     0.2922
     47 H         0.316519   0.300141   2.30348 H        1 UNL1     0.2126
     48 H         1.308649   -1.794212   -0.286745 H        1 UNL1     0.2101
     49 H         -1.98981   0.882261   -1.031626 H        1 UNL1     0.2100
     50 H         -2.434001   -3.398927   -1.47831 H        1 UNL1     0.2102
@<TRIPOS>BOND
     1     1     2    1
     2     1     6    1
     3     2     3    1
     4     3     4    1
     5     3    29    1
     6     3    33    1
     7     4     5    1
     8     5     6    1
     9     5     7    1
    10     5    35    1
    11     7     8    1
    12     8     9   ar
    13     8    13   ar
    14     9    10   ar
    15     9    36    1
    16    10    11   ar
    17    10    26    1
    18    11    12   ar
    19    11    14    1
    20    12    13   ar
    21    12    17    1
    22    13    37    1
    23    14    15    1
    24    14    25    2
    25    15    16    1
    26    15    38    1
    27    15    39    1
    28    16    17    1
    29    16    18    1
    30    16    40    1
    31    18    19   ar
    32    18    23   ar
    33    19    20   ar
    34    19    41    1
    35    20    21   ar
    36    20    42    1
    37    21    22   ar
    38    21    24    1
    39    22    23   ar
    40    22    43    1
    41    23    44    1
    42    24    45    1
    43    26    46    1
    44    27    47    1
    45    28    48    1
    46    29    49    1
    47    30    50    1
    48     1    31    1
    49     1    27    1
    50     2    32    1
    51     2    28    1
    52     4    34    1
    53     4    30    1
