@<TRIPOS>MOLECULE
*****
 50 53 0 0 0
SMALL
GASTEIGER

@<TRIPOS>ATOM
     1 C         -0.403765   -1.361071   1.659899 C.3        1 UNL1     0.1889
     2 C         -0.499135   -0.963364   0.162343 C.3        1 UNL1     0.1342
     3 C         -1.93046   -0.885597   -0.390582 C.3        1 UNL1     0.1174
     4 C         -2.863056   -1.930261   0.227528 C.3        1 UNL1     0.1456
     5 C         -2.735502   -2.00214   1.760149 C.3        1 UNL1     0.2326
     6 O         -1.384478   -2.277625   2.123068 O.3        1 UNL1     -0.3076
     7 O         -3.279766   -0.853453   2.435143 O.3        1 UNL1     -0.4605
     8 C         -3.82616   -1.086867   3.684343 C.ar        1 UNL1     0.1310
     9 C         -4.692089   -2.13739   4.006633 C.ar        1 UNL1     0.0226
     10 C         -5.179975   -2.299587   5.30877 C.ar        1 UNL1     0.1343
     11 C         -4.794481   -1.428204   6.326576 C.ar        1 UNL1     0.1007
     12 C         -3.962814   -0.351329   6.008058 C.ar        1 UNL1     0.1389
     13 C         -3.47449   -0.18692   4.698119 C.ar        1 UNL1     0.0229
     14 C         -5.212777   -1.601963   7.736891 C.2        1 UNL1     0.1740
     15 C         -4.529056   -0.710394   8.731466 C.3        1 UNL1     0.0520
     16 C         -4.391321   0.677045   8.119912 C.3        1 UNL1     0.1322
     17 O         -3.607864   0.627403   6.907146 O.3        1 UNL1     -0.4828
     18 C         -5.719277   1.426445   7.987026 C.ar        1 UNL1     -0.0067
     19 C         -6.04   2.056217   6.766887 C.ar        1 UNL1     -0.0516
     20 C         -7.224226   2.789628   6.626606 C.ar        1 UNL1     -0.0198
     21 C         -8.090518   2.906642   7.698834 C.ar        1 UNL1     0.1169
     22 C         -7.818446   2.270013   8.902794 C.ar        1 UNL1     -0.0198
     23 C         -6.643218   1.521203   9.03762 C.ar        1 UNL1     -0.0516
     24 O         -9.215699   3.660317   7.53653 O.3        1 UNL1     -0.5068
     25 O         -6.004623   -2.465317   8.105787 O.2        1 UNL1     -0.2917
     26 O         -6.022006   -3.344059   5.557054 O.3        1 UNL1     -0.5058
     27 O         -0.271418   -0.250297   2.532512 O.3        1 UNL1     -0.3648
     28 O         0.208163   -1.946126   -0.616511 O.3        1 UNL1     -0.3841
     29 O         -2.442746   0.444374   -0.286304 O.3        1 UNL1     -0.3863
     30 O         -2.553345   -3.228004   -0.325313 O.3        1 UNL1     -0.3829
     31 H         0.536493   -1.910578   1.778367 H        1 UNL1     0.0937
     32 H         0.0   0.0   0.0 H        1 UNL1     0.0671
     33 H         -1.885707   -1.09738   -1.468016 H        1 UNL1     0.0649
     34 H         -3.902324   -1.70809   -0.038861 H        1 UNL1     0.0683
     35 H         -3.325724   -2.88575   2.033554 H        1 UNL1     0.1085
     36 H         -4.984641   -2.880668   3.273099 H        1 UNL1     0.0691
     37 H         -2.829327   0.660309   4.475722 H        1 UNL1     0.0691
     38 H         -3.547665   -1.146168   8.947103 H        1 UNL1     0.0385
     39 H         -5.109249   -0.697673   9.66044 H        1 UNL1     0.0385
     40 H         -3.786772   1.277701   8.812915 H        1 UNL1     0.0789
     41 H         -5.37216   1.986969   5.913163 H        1 UNL1     0.0623
     42 H         -7.454565   3.280565   5.684302 H        1 UNL1     0.0654
     43 H         -8.497225   2.3426   9.744162 H        1 UNL1     0.0654
     44 H         -6.467702   1.028438   9.989051 H        1 UNL1     0.0623
     45 H         -8.948049   4.575396   7.352926 H        1 UNL1     0.2921
     46 H         -5.655545   -3.893056   6.268195 H        1 UNL1     0.2922
     47 H         0.482254   0.295426   2.267891 H        1 UNL1     0.2126
     48 H         1.146302   -1.891279   -0.350768 H        1 UNL1     0.2101
     49 H         -1.980041   1.026113   -0.910226 H        1 UNL1     0.2100
     50 H         -2.777937   -3.210982   -1.278718 H        1 UNL1     0.2102
@<TRIPOS>BOND
     1     1     2    1
     2     1     6    1
     3     2     3    1
     4     3     4    1
     5     3    29    1
     6     3    33    1
     7     4     5    1
     8     5     6    1
     9     5     7    1
    10     5    35    1
    11     7     8    1
    12     8     9   ar
    13     8    13   ar
    14     9    10   ar
    15     9    36    1
    16    10    11   ar
    17    10    26    1
    18    11    12   ar
    19    11    14    1
    20    12    13   ar
    21    12    17    1
    22    13    37    1
    23    14    15    1
    24    14    25    2
    25    15    16    1
    26    15    38    1
    27    15    39    1
    28    16    17    1
    29    16    18    1
    30    16    40    1
    31    18    19   ar
    32    18    23   ar
    33    19    20   ar
    34    19    41    1
    35    20    21   ar
    36    20    42    1
    37    21    22   ar
    38    21    24    1
    39    22    23   ar
    40    22    43    1
    41    23    44    1
    42    24    45    1
    43    26    46    1
    44    27    47    1
    45    28    48    1
    46    29    49    1
    47    30    50    1
    48     1    31    1
    49     1    27    1
    50     2    32    1
    51     2    28    1
    52     4    34    1
    53     4    30    1
