@<TRIPOS>MOLECULE
*****
 50 53 0 0 0
SMALL
GASTEIGER

@<TRIPOS>ATOM
     1 C         1.341586   0.556895   1.631202 C.3        1 UNL1     0.1889
     2 C         -0.07753   0.351194   1.036443 C.3        1 UNL1     0.1342
     3 C         -0.976767   1.596238   1.077712 C.3        1 UNL1     0.1174
     4 C         -0.740112   2.458351   2.320239 C.3        1 UNL1     0.1456
     5 C         0.755482   2.697628   2.596481 C.3        1 UNL1     0.2326
     6 O         1.430508   1.449124   2.732299 O.3        1 UNL1     -0.3076
     7 O         1.380425   3.578213   1.644989 O.3        1 UNL1     -0.4605
     8 C         0.84535   3.570412   0.369386 C.ar        1 UNL1     0.1310
     9 C         1.580131   3.470786   -0.816983 C.ar        1 UNL1     0.0226
     10 C         0.94319   3.454173   -2.063551 C.ar        1 UNL1     0.1343
     11 C         -0.446918   3.512864   -2.15297 C.ar        1 UNL1     0.1007
     12 C         -1.189042   3.653889   -0.977322 C.ar        1 UNL1     0.1389
     13 C         -0.548205   3.673232   0.275827 C.ar        1 UNL1     0.0229
     14 C         -1.176047   3.414682   -3.438616 C.2        1 UNL1     0.1740
     15 C         -2.665744   3.270692   -3.330835 C.3        1 UNL1     0.0520
     16 C         -3.158877   4.184985   -2.2178 C.3        1 UNL1     0.1322
     17 O         -2.553301   3.828779   -0.955475 O.3        1 UNL1     -0.4828
     18 C         -3.078044   5.674099   -2.56237 C.ar        1 UNL1     -0.0067
     19 C         -3.435861   6.106003   -3.856062 C.ar        1 UNL1     -0.0516
     20 C         -3.328399   7.453932   -4.218691 C.ar        1 UNL1     -0.0198
     21 C         -2.858574   8.376493   -3.3011 C.ar        1 UNL1     0.1169
     22 C         -2.530071   7.987177   -2.009064 C.ar        1 UNL1     -0.0198
     23 C         -2.654934   6.642333   -1.640472 C.ar        1 UNL1     -0.0516
     24 O         -2.731587   9.674027   -3.701951 O.3        1 UNL1     -0.5068
     25 O         -0.616956   3.370242   -4.531286 O.2        1 UNL1     -0.2917
     26 O         1.717486   3.356295   -3.182689 O.3        1 UNL1     -0.5058
     27 O         2.330357   0.8332   0.652032 O.3        1 UNL1     -0.3648
     28 O         -0.741582   -0.68194   1.787691 O.3        1 UNL1     -0.3841
     29 O         -0.871504   2.338291   -0.139008 O.3        1 UNL1     -0.3863
     30 O         -1.325476   1.805933   3.468015 O.3        1 UNL1     -0.3829
     31 H         1.645043   -0.405907   2.056647 H        1 UNL1     0.0937
     32 H         0.0   0.0   -0.0 H        1 UNL1     0.0671
     33 H         -2.020413   1.254809   1.12187 H        1 UNL1     0.0649
     34 H         -1.246032   3.423625   2.20758 H        1 UNL1     0.0683
     35 H         0.768849   3.176482   3.583597 H        1 UNL1     0.1085
     36 H         2.6595   3.365625   -0.81207 H        1 UNL1     0.0691
     37 H         -1.148557   3.785023   1.176146 H        1 UNL1     0.0691
     38 H         -2.881496   2.221058   -3.104456 H        1 UNL1     0.0385
     39 H         -3.120605   3.512618   -4.297453 H        1 UNL1     0.0385
     40 H         -4.228245   3.976754   -2.077756 H        1 UNL1     0.0789
     41 H         -3.798707   5.399947   -4.597331 H        1 UNL1     0.0623
     42 H         -3.596157   7.77263   -5.223056 H        1 UNL1     0.0654
     43 H         -2.175405   8.703859   -1.277975 H        1 UNL1     0.0654
     44 H         -2.39945   6.375286   -0.619561 H        1 UNL1     0.0623
     45 H         -2.357053   10.186701   -2.967372 H        1 UNL1     0.2921
     46 H         2.59624   3.02412   -2.940071 H        1 UNL1     0.2922
     47 H         3.057121   1.337834   1.043207 H        1 UNL1     0.2126
     48 H         -1.271771   -0.232203   2.473526 H        1 UNL1     0.2101
     49 H         -0.130195   2.002161   -0.66747 H        1 UNL1     0.2100
     50 H         -0.680657   1.854617   4.203916 H        1 UNL1     0.2102
@<TRIPOS>BOND
     1     1     2    1
     2     1     6    1
     3     2     3    1
     4     3     4    1
     5     3    29    1
     6     3    33    1
     7     4     5    1
     8     5     6    1
     9     5     7    1
    10     5    35    1
    11     7     8    1
    12     8     9   ar
    13     8    13   ar
    14     9    10   ar
    15     9    36    1
    16    10    11   ar
    17    10    26    1
    18    11    12   ar
    19    11    14    1
    20    12    13   ar
    21    12    17    1
    22    13    37    1
    23    14    15    1
    24    14    25    2
    25    15    16    1
    26    15    38    1
    27    15    39    1
    28    16    17    1
    29    16    18    1
    30    16    40    1
    31    18    19   ar
    32    18    23   ar
    33    19    20   ar
    34    19    41    1
    35    20    21   ar
    36    20    42    1
    37    21    22   ar
    38    21    24    1
    39    22    23   ar
    40    22    43    1
    41    23    44    1
    42    24    45    1
    43    26    46    1
    44    27    47    1
    45    28    48    1
    46    29    49    1
    47    30    50    1
    48     1    31    1
    49     1    27    1
    50     2    32    1
    51     2    28    1
    52     4    34    1
    53     4    30    1
