@<TRIPOS>MOLECULE
*****
 50 53 0 0 0
SMALL
GASTEIGER

@<TRIPOS>ATOM
     1 C         -0.33869   -1.332793   1.696985 C.3        1 UNL1     0.1889
     2 C         -0.466032   -0.974451   0.191888 C.3        1 UNL1     0.1342
     3 C         -1.906134   -0.955225   -0.343091 C.3        1 UNL1     0.1174
     4 C         -2.79689   -2.013622   0.312246 C.3        1 UNL1     0.1456
     5 C         -2.647317   -2.044533   1.84425 C.3        1 UNL1     0.2326
     6 O         -1.283621   -2.268429   2.195067 O.3        1 UNL1     -0.3076
     7 O         -3.219153   -0.897684   2.499277 O.3        1 UNL1     -0.4605
     8 C         -3.731454   -1.115639   3.765599 C.ar        1 UNL1     0.1310
     9 C         -4.552067   -2.187027   4.134411 C.ar        1 UNL1     0.0226
     10 C         -5.007424   -2.330279   5.450477 C.ar        1 UNL1     0.1343
     11 C         -4.633346   -1.417748   6.435968 C.ar        1 UNL1     0.1007
     12 C         -3.847846   -0.32115   6.070937 C.ar        1 UNL1     0.1389
     13 C         -3.392288   -0.17589   4.747004 C.ar        1 UNL1     0.0229
     14 C         -5.016575   -1.56706   7.858991 C.2        1 UNL1     0.1740
     15 C         -4.345727   -0.624366   8.814417 C.3        1 UNL1     0.0520
     16 C         -4.270721   0.749572   8.162785 C.3        1 UNL1     0.1322
     17 O         -3.510567   0.694232   6.935522 O.3        1 UNL1     -0.4828
     18 C         -5.627375   1.447128   8.037767 C.ar        1 UNL1     -0.0067
     19 C         -6.001539   2.017876   6.803886 C.ar        1 UNL1     -0.0516
     20 C         -7.214226   2.704126   6.668188 C.ar        1 UNL1     -0.0198
     21 C         -8.056206   2.832594   7.758322 C.ar        1 UNL1     0.1169
     22 C         -7.730822   2.252697   8.977619 C.ar        1 UNL1     -0.0198
     23 C         -6.526719   1.550549   9.108691 C.ar        1 UNL1     -0.0516
     24 O         -9.211191   3.54026   7.598261 O.3        1 UNL1     -0.5068
     25 O         -5.769014   -2.447533   8.267754 O.2        1 UNL1     -0.2917
     26 O         -5.80587   -3.396829   5.744659 O.3        1 UNL1     -0.5058
     27 O         -0.230555   -0.197716   2.541198 O.3        1 UNL1     -0.3648
     28 O         0.262111   -1.952861   -0.573113 O.3        1 UNL1     -0.3841
     29 O         -2.459165   0.36004   -0.263291 O.3        1 UNL1     -0.3863
     30 O         -2.453137   -3.313873   -0.21394 O.3        1 UNL1     -0.3829
     31 H         0.620059   -1.849342   1.815541 H        1 UNL1     0.0937
     32 H         0.0   0.0   0.0 H        1 UNL1     0.0671
     33 H         -1.868579   -1.191359   -1.415728 H        1 UNL1     0.0649
     34 H         -3.846067   -1.830837   0.054919 H        1 UNL1     0.0683
     35 H         -3.20549   -2.939494   2.146519 H        1 UNL1     0.1085
     36 H         -4.8322   -2.96037   3.427596 H        1 UNL1     0.0691
     37 H         -2.78287   0.687312   4.48819 H        1 UNL1     0.0691
     38 H         -3.34504   -1.018683   9.020978 H        1 UNL1     0.0385
     39 H         -4.907169   -0.606543   9.754759 H        1 UNL1     0.0385
     40 H         -3.674505   1.390444   8.826359 H        1 UNL1     0.0789
     41 H         -5.353882   1.938723   5.935597 H        1 UNL1     0.0623
     42 H         -7.486015   3.150071   5.714628 H        1 UNL1     0.0654
     43 H         -8.389844   2.334331   9.833736 H        1 UNL1     0.0654
     44 H         -6.309401   1.101245   10.072924 H        1 UNL1     0.0623
     45 H         -8.981392   4.449934   7.348455 H        1 UNL1     0.2921
     46 H         -5.405499   -3.912424   6.462487 H        1 UNL1     0.2922
     47 H         0.512136   0.356519   2.263541 H        1 UNL1     0.2126
     48 H         1.19769   -1.879451   -0.30286 H        1 UNL1     0.2101
     49 H         -2.017613   0.942965   -0.901276 H        1 UNL1     0.2100
     50 H         -2.690459   -3.326899   -1.16432 H        1 UNL1     0.2102
@<TRIPOS>BOND
     1     1     2    1
     2     1     6    1
     3     2     3    1
     4     3     4    1
     5     3    29    1
     6     3    33    1
     7     4     5    1
     8     5     6    1
     9     5     7    1
    10     5    35    1
    11     7     8    1
    12     8     9   ar
    13     8    13   ar
    14     9    10   ar
    15     9    36    1
    16    10    11   ar
    17    10    26    1
    18    11    12   ar
    19    11    14    1
    20    12    13   ar
    21    12    17    1
    22    13    37    1
    23    14    15    1
    24    14    25    2
    25    15    16    1
    26    15    38    1
    27    15    39    1
    28    16    17    1
    29    16    18    1
    30    16    40    1
    31    18    19   ar
    32    18    23   ar
    33    19    20   ar
    34    19    41    1
    35    20    21   ar
    36    20    42    1
    37    21    22   ar
    38    21    24    1
    39    22    23   ar
    40    22    43    1
    41    23    44    1
    42    24    45    1
    43    26    46    1
    44    27    47    1
    45    28    48    1
    46    29    49    1
    47    30    50    1
    48     1    31    1
    49     1    27    1
    50     2    32    1
    51     2    28    1
    52     4    34    1
    53     4    30    1
