@<TRIPOS>MOLECULE
*****
 50 53 0 0 0
SMALL
GASTEIGER

@<TRIPOS>ATOM
     1 C         -0.337151   -1.322212   1.705546 C.3        1 UNL1     0.1889
     2 C         -0.479805   -0.965817   0.201361 C.3        1 UNL1     0.1342
     3 C         -1.926849   -0.923416   -0.313157 C.3        1 UNL1     0.1174
     4 C         -2.826098   -1.964651   0.357885 C.3        1 UNL1     0.1456
     5 C         -2.655249   -1.993972   1.887694 C.3        1 UNL1     0.2326
     6 O         -1.290708   -2.240204   2.21976 O.3        1 UNL1     -0.3076
     7 O         -3.198042   -0.835745   2.547396 O.3        1 UNL1     -0.4605
     8 C         -3.706175   -1.043775   3.817062 C.ar        1 UNL1     0.1310
     9 C         -4.54686   -2.097757   4.19079 C.ar        1 UNL1     0.0226
     10 C         -4.996133   -2.232353   5.509858 C.ar        1 UNL1     0.1343
     11 C         -4.595971   -1.328788   6.493362 C.ar        1 UNL1     0.1007
     12 C         -3.789827   -0.24886   6.123673 C.ar        1 UNL1     0.1389
     13 C         -3.340364   -0.112253   4.796739 C.ar        1 UNL1     0.0229
     14 C         -4.972529   -1.471066   7.918885 C.2        1 UNL1     0.1740
     15 C         -4.275235   -0.543636   8.870306 C.3        1 UNL1     0.0520
     16 C         -4.175469   0.828923   8.219088 C.3        1 UNL1     0.1322
     17 O         -3.425094   0.758414   6.986596 O.3        1 UNL1     -0.4828
     18 C         -5.517793   1.555292   8.103856 C.ar        1 UNL1     -0.0067
     19 C         -5.881556   2.147759   6.877123 C.ar        1 UNL1     -0.0516
     20 C         -7.080184   2.860024   6.750898 C.ar        1 UNL1     -0.0198
     21 C         -7.918249   2.992948   7.843513 C.ar        1 UNL1     0.1169
     22 C         -7.603456   2.392495   9.055618 C.ar        1 UNL1     -0.0198
     23 C         -6.413738   1.664564   9.177045 C.ar        1 UNL1     -0.0516
     24 O         -9.058776   3.725735   7.6931 O.3        1 UNL1     -0.5068
     25 O         -5.74072   -2.335659   8.332221 O.2        1 UNL1     -0.2917
     26 O         -5.815065   -3.281908   5.808808 O.3        1 UNL1     -0.5058
     27 O         -0.197644   -0.186872   2.544788 O.3        1 UNL1     -0.3648
     28 O         0.220562   -1.9586   -0.57102 O.3        1 UNL1     -0.3841
     29 O         -2.456169   0.401324   -0.229386 O.3        1 UNL1     -0.3863
     30 O         -2.512112   -3.272008   -0.169297 O.3        1 UNL1     -0.3829
     31 H         0.61424   -1.854757   1.811991 H        1 UNL1     0.0937
     32 H         0.0   0.0   0.0 H        1 UNL1     0.0671
     33 H         -1.908623   -1.163057   -1.385519 H        1 UNL1     0.0649
     34 H         -3.875566   -1.764649   0.114953 H        1 UNL1     0.0683
     35 H         -3.224242   -2.878437   2.200499 H        1 UNL1     0.1085
     36 H         -4.848228   -2.86439   3.485402 H        1 UNL1     0.0691
     37 H         -2.714499   0.737995   4.534318 H        1 UNL1     0.0691
     38 H         -3.281776   -0.959326   9.069726 H        1 UNL1     0.0385
     39 H         -4.829713   -0.514633   9.814495 H        1 UNL1     0.0385
     40 H         -3.561213   1.456423   8.878976 H        1 UNL1     0.0789
     41 H         -5.236542   2.065517   6.007156 H        1 UNL1     0.0623
     42 H         -7.34384   3.3224   5.802897 H        1 UNL1     0.0654
     43 H         -8.259795   2.477589   9.913458 H        1 UNL1     0.0654
     44 H         -6.204599   1.199813   10.135749 H        1 UNL1     0.0623
     45 H         -8.810195   4.639384   7.47823 H        1 UNL1     0.2921
     46 H         -5.420849   -3.806489   6.523526 H        1 UNL1     0.2922
     47 H         0.540083   0.362452   2.24502 H        1 UNL1     0.2126
     48 H         1.164734   -1.883187   -0.333144 H        1 UNL1     0.2101
     49 H         -2.019721   0.972912   -0.880996 H        1 UNL1     0.2100
     50 H         -2.763146   -3.283544   -1.116166 H        1 UNL1     0.2102
@<TRIPOS>BOND
     1     1     2    1
     2     1     6    1
     3     2     3    1
     4     3     4    1
     5     3    29    1
     6     3    33    1
     7     4     5    1
     8     5     6    1
     9     5     7    1
    10     5    35    1
    11     7     8    1
    12     8     9   ar
    13     8    13   ar
    14     9    10   ar
    15     9    36    1
    16    10    11   ar
    17    10    26    1
    18    11    12   ar
    19    11    14    1
    20    12    13   ar
    21    12    17    1
    22    13    37    1
    23    14    15    1
    24    14    25    2
    25    15    16    1
    26    15    38    1
    27    15    39    1
    28    16    17    1
    29    16    18    1
    30    16    40    1
    31    18    19   ar
    32    18    23   ar
    33    19    20   ar
    34    19    41    1
    35    20    21   ar
    36    20    42    1
    37    21    22   ar
    38    21    24    1
    39    22    23   ar
    40    22    43    1
    41    23    44    1
    42    24    45    1
    43    26    46    1
    44    27    47    1
    45    28    48    1
    46    29    49    1
    47    30    50    1
    48     1    31    1
    49     1    27    1
    50     2    32    1
    51     2    28    1
    52     4    34    1
    53     4    30    1
