@<TRIPOS>MOLECULE
*****
 50 53 0 0 0
SMALL
GASTEIGER

@<TRIPOS>ATOM
     1 C         -0.326463   -1.366661   1.672264 C.3        1 UNL1     0.1889
     2 C         -0.462207   -0.979425   0.175079 C.3        1 UNL1     0.1342
     3 C         -1.904952   -0.954165   -0.352474 C.3        1 UNL1     0.1174
     4 C         -2.789366   -2.027855   0.286369 C.3        1 UNL1     0.1456
     5 C         -2.632228   -2.08818   1.816739 C.3        1 UNL1     0.2326
     6 O         -1.26618   -2.314712   2.156541 O.3        1 UNL1     -0.3076
     7 O         -3.204251   -0.956073   2.496772 O.3        1 UNL1     -0.4605
     8 C         -3.719922   -1.202641   3.75646 C.ar        1 UNL1     0.1310
     9 C         -4.54276   -2.281223   4.098364 C.ar        1 UNL1     0.0226
     10 C         -5.001519   -2.454333   5.409652 C.ar        1 UNL1     0.1343
     11 C         -4.62873   -1.565359   6.416922 C.ar        1 UNL1     0.1007
     12 C         -3.840982   -0.461616   6.079297 C.ar        1 UNL1     0.1389
     13 C         -3.382001   -0.286316   4.760193 C.ar        1 UNL1     0.0229
     14 C         -5.01563   -1.747098   7.835172 C.2        1 UNL1     0.1740
     15 C         -4.34596   -0.827656   8.813803 C.3        1 UNL1     0.0520
     16 C         -4.26766   0.56091   8.194359 C.3        1 UNL1     0.1322
     17 O         -3.504569   0.53303   6.967988 O.3        1 UNL1     -0.4828
     18 C         -5.62314   1.262927   8.082249 C.ar        1 UNL1     -0.0067
     19 C         -5.697375   2.532151   7.472518 C.ar        1 UNL1     -0.0516
     20 C         -6.913009   3.222333   7.396064 C.ar        1 UNL1     -0.0198
     21 C         -8.057514   2.658545   7.930926 C.ar        1 UNL1     0.1169
     22 C         -8.02273   1.395676   8.507807 C.ar        1 UNL1     -0.0198
     23 C         -6.810822   0.697306   8.567925 C.ar        1 UNL1     -0.0516
     24 O         -9.215628   3.376637   7.871627 O.3        1 UNL1     -0.5068
     25 O         -5.770156   -2.635831   8.221604 O.2        1 UNL1     -0.2917
     26 O         -5.802   -3.526378   5.677112 O.3        1 UNL1     -0.5058
     27 O         -0.217566   -0.247939   2.537937 O.3        1 UNL1     -0.3648
     28 O         0.265086   -1.940504   -0.612373 O.3        1 UNL1     -0.3841
     29 O         -2.461475   0.357599   -0.244356 O.3        1 UNL1     -0.3863
     30 O         -2.444341   -3.316542   -0.266744 O.3        1 UNL1     -0.3829
     31 H         0.634377   -1.882495   1.776093 H        1 UNL1     0.0937
     32 H         0.0   0.0   0.0 H        1 UNL1     0.0671
     33 H         -1.871934   -1.16922   -1.429684 H        1 UNL1     0.0649
     34 H         -3.840322   -1.843289   0.037719 H        1 UNL1     0.0683
     35 H         -3.18627   -2.990565   2.104172 H        1 UNL1     0.1085
     36 H         -4.822116   -3.037623   3.373147 H        1 UNL1     0.0691
     37 H         -2.770885   0.581861   4.522922 H        1 UNL1     0.0691
     38 H         -3.346271   -1.227945   9.013595 H        1 UNL1     0.0385
     39 H         -4.909683   -0.830895   9.752943 H        1 UNL1     0.0385
     40 H         -3.67228   1.185467   8.874044 H        1 UNL1     0.0789
     41 H         -4.811441   3.000176   7.053323 H        1 UNL1     0.0623
     42 H         -6.955026   4.205576   6.934026 H        1 UNL1     0.0654
     43 H         -8.915996   0.938378   8.916297 H        1 UNL1     0.0654
     44 H         -6.822369   -0.291547   9.016124 H        1 UNL1     0.0623
     45 H         -9.097068   4.192709   8.384158 H        1 UNL1     0.2921
     46 H         -5.415269   -4.046807   6.398918 H        1 UNL1     0.2922
     47 H         0.511764   0.322508   2.257711 H        1 UNL1     0.2126
     48 H         1.205298   -1.851752   -0.363664 H        1 UNL1     0.2101
     49 H         -2.030757   0.952156   -0.879004 H        1 UNL1     0.2100
     50 H         -2.686258   -3.311755   -1.216042 H        1 UNL1     0.2102
@<TRIPOS>BOND
     1     1     2    1
     2     1     6    1
     3     2     3    1
     4     3     4    1
     5     3    29    1
     6     3    33    1
     7     4     5    1
     8     5     6    1
     9     5     7    1
    10     5    35    1
    11     7     8    1
    12     8     9   ar
    13     8    13   ar
    14     9    10   ar
    15     9    36    1
    16    10    11   ar
    17    10    26    1
    18    11    12   ar
    19    11    14    1
    20    12    13   ar
    21    12    17    1
    22    13    37    1
    23    14    15    1
    24    14    25    2
    25    15    16    1
    26    15    38    1
    27    15    39    1
    28    16    17    1
    29    16    18    1
    30    16    40    1
    31    18    19   ar
    32    18    23   ar
    33    19    20   ar
    34    19    41    1
    35    20    21   ar
    36    20    42    1
    37    21    22   ar
    38    21    24    1
    39    22    23   ar
    40    22    43    1
    41    23    44    1
    42    24    45    1
    43    26    46    1
    44    27    47    1
    45    28    48    1
    46    29    49    1
    47    30    50    1
    48     1    31    1
    49     1    27    1
    50     2    32    1
    51     2    28    1
    52     4    34    1
    53     4    30    1
