@<TRIPOS>MOLECULE
*****
 50 53 0 0 0
SMALL
GASTEIGER

@<TRIPOS>ATOM
     1 C         1.183052   -1.817676   -0.259322 C.3        1 UNL1     0.1889
     2 C         0.308163   -0.865468   0.599636 C.3        1 UNL1     0.1342
     3 C         0.978116   -0.368262   1.889758 C.3        1 UNL1     0.1174
     4 C         1.89191   -1.418235   2.526668 C.3        1 UNL1     0.1456
     5 C         2.821542   -2.0919   1.500839 C.3        1 UNL1     0.2326
     6 O         2.048329   -2.684194   0.459591 O.3        1 UNL1     -0.3076
     7 O         3.859522   -1.223601   1.010968 O.3        1 UNL1     -0.4605
     8 C         3.554456   0.125144   0.974212 C.ar        1 UNL1     0.1310
     9 C         3.774183   0.976289   -0.114168 C.ar        1 UNL1     0.0226
     10 C         3.414045   2.328057   -0.060063 C.ar        1 UNL1     0.1343
     11 C         2.803048   2.85654   1.076259 C.ar        1 UNL1     0.1007
     12 C         2.615879   2.026112   2.184475 C.ar        1 UNL1     0.1389
     13 C         2.980495   0.667583   2.13078 C.ar        1 UNL1     0.0229
     14 C         2.326067   4.2566   1.156716 C.2        1 UNL1     0.1740
     15 C         1.496397   4.591656   2.361263 C.3        1 UNL1     0.0520
     16 C         2.105351   3.900094   3.573234 C.3        1 UNL1     0.1322
     17 O         2.123223   2.467109   3.390742 O.3        1 UNL1     -0.4828
     18 C         3.441554   4.499648   4.018006 C.ar        1 UNL1     -0.0067
     19 C         3.606721   5.899981   4.017389 C.ar        1 UNL1     -0.0516
     20 C         4.830743   6.479061   4.372916 C.ar        1 UNL1     -0.0198
     21 C         5.897034   5.670229   4.723118 C.ar        1 UNL1     0.1169
     22 C         5.755361   4.289299   4.765536 C.ar        1 UNL1     -0.0198
     23 C         4.526006   3.710744   4.427873 C.ar        1 UNL1     -0.0516
     24 O         7.084661   6.268358   5.026736 O.3        1 UNL1     -0.5068
     25 O         2.51424   5.086907   0.271466 O.2        1 UNL1     -0.2917
     26 O         3.656395   3.104862   -1.155246 O.3        1 UNL1     -0.5058
     27 O         1.861154   -1.160954   -1.318417 O.3        1 UNL1     -0.3648
     28 O         -0.889517   -1.567041   0.981818 O.3        1 UNL1     -0.3841
     29 O         1.638469   0.879789   1.669682 O.3        1 UNL1     -0.3863
     30 O         1.080228   -2.434241   3.154835 O.3        1 UNL1     -0.3829
     31 H         0.494927   -2.504278   -0.764437 H        1 UNL1     0.0937
     32 H         0.0   0.0   0.0 H        1 UNL1     0.0671
     33 H         0.184188   -0.153725   2.618712 H        1 UNL1     0.0649
     34 H         2.497028   -0.958188   3.315711 H        1 UNL1     0.0683
     35 H         3.283405   -2.913795   2.062132 H        1 UNL1     0.1085
     36 H         4.193942   0.613592   -1.046034 H        1 UNL1     0.0691
     37 H         2.825301   0.042401   3.007453 H        1 UNL1     0.0691
     38 H         0.478645   4.233869   2.172332 H        1 UNL1     0.0385
     39 H         1.45979   5.679878   2.480477 H        1 UNL1     0.0385
     40 H         1.419716   4.060979   4.41617 H        1 UNL1     0.0789
     41 H         2.787754   6.556219   3.737576 H        1 UNL1     0.0623
     42 H         4.949119   7.559685   4.357043 H        1 UNL1     0.0654
     43 H         6.57944   3.647233   5.052862 H        1 UNL1     0.0654
     44 H         4.447813   2.62918   4.482172 H        1 UNL1     0.0623
     45 H         7.738842   5.575063   5.211417 H        1 UNL1     0.2921
     46 H         3.789557   2.537678   -1.931121 H        1 UNL1     0.2922
     47 H         2.125709   -1.800641   -1.994192 H        1 UNL1     0.2126
     48 H         -1.151347   -1.218051   1.855537 H        1 UNL1     0.2101
     49 H         1.676136   1.070052   0.7188 H        1 UNL1     0.2100
     50 H         1.464525   -3.307445   2.932252 H        1 UNL1     0.2102
@<TRIPOS>BOND
     1     1     2    1
     2     1     6    1
     3     2     3    1
     4     3     4    1
     5     3    29    1
     6     3    33    1
     7     4     5    1
     8     5     6    1
     9     5     7    1
    10     5    35    1
    11     7     8    1
    12     8     9   ar
    13     8    13   ar
    14     9    10   ar
    15     9    36    1
    16    10    11   ar
    17    10    26    1
    18    11    12   ar
    19    11    14    1
    20    12    13   ar
    21    12    17    1
    22    13    37    1
    23    14    15    1
    24    14    25    2
    25    15    16    1
    26    15    38    1
    27    15    39    1
    28    16    17    1
    29    16    18    1
    30    16    40    1
    31    18    19   ar
    32    18    23   ar
    33    19    20   ar
    34    19    41    1
    35    20    21   ar
    36    20    42    1
    37    21    22   ar
    38    21    24    1
    39    22    23   ar
    40    22    43    1
    41    23    44    1
    42    24    45    1
    43    26    46    1
    44    27    47    1
    45    28    48    1
    46    29    49    1
    47    30    50    1
    48     1    31    1
    49     1    27    1
    50     2    32    1
    51     2    28    1
    52     4    34    1
    53     4    30    1
