@<TRIPOS>MOLECULE
*****
 50 53 0 0 0
SMALL
GASTEIGER

@<TRIPOS>ATOM
     1 C         -0.238356   -1.623762   1.441314 C.3        1 UNL1     0.1889
     2 C         -0.230336   -0.117394   1.066173 C.3        1 UNL1     0.1342
     3 C         0.743032   0.742624   1.886777 C.3        1 UNL1     0.1174
     4 C         0.872548   0.271979   3.337582 C.3        1 UNL1     0.1456
     5 C         1.061075   -1.251958   3.449113 C.3        1 UNL1     0.2326
     6 O         -0.023487   -1.923781   2.812524 O.3        1 UNL1     -0.3076
     7 O         2.350439   -1.70461   2.997484 O.3        1 UNL1     -0.4605
     8 C         2.863194   -2.815475   3.642921 C.ar        1 UNL1     0.1310
     9 C         3.60975   -2.792623   4.825896 C.ar        1 UNL1     0.0226
     10 C         4.071767   -3.976522   5.413115 C.ar        1 UNL1     0.1343
     11 C         3.777834   -5.214809   4.843828 C.ar        1 UNL1     0.1007
     12 C         3.068159   -5.248031   3.640483 C.ar        1 UNL1     0.1389
     13 C         2.605978   -4.057333   3.048825 C.ar        1 UNL1     0.0229
     14 C         4.168956   -6.50065   5.466556 C.2        1 UNL1     0.1740
     15 C         3.580799   -7.730831   4.840237 C.3        1 UNL1     0.0520
     16 C         3.595679   -7.555657   3.327938 C.3        1 UNL1     0.1322
     17 O         2.816645   -6.403381   2.937507 O.3        1 UNL1     -0.4828
     18 C         4.997074   -7.611221   2.714971 C.ar        1 UNL1     -0.0067
     19 C         5.702965   -8.831839   2.710171 C.ar        1 UNL1     -0.0516
     20 C         7.004706   -8.906817   2.200454 C.ar        1 UNL1     -0.0198
     21 C         7.612956   -7.769285   1.700575 C.ar        1 UNL1     0.1169
     22 C         6.931192   -6.559958   1.661033 C.ar        1 UNL1     -0.0198
     23 C         5.622687   -6.488697   2.153772 C.ar        1 UNL1     -0.0516
     24 O         8.895279   -7.87267   1.247408 O.3        1 UNL1     -0.5068
     25 O         4.861785   -6.579106   6.477654 O.2        1 UNL1     -0.2917
     26 O         4.795532   -3.885352   6.566127 O.3        1 UNL1     -0.5058
     27 O         0.576479   -2.421037   0.596812 O.3        1 UNL1     -0.3648
     28 O         -1.552332   0.412241   1.277164 O.3        1 UNL1     -0.3841
     29 O         2.005135   0.85109   1.225367 O.3        1 UNL1     -0.3863
     30 O         -0.317249   0.646903   4.065252 O.3        1 UNL1     -0.3829
     31 H         -1.255164   -1.986874   1.256033 H        1 UNL1     0.0937
     32 H         0.0   0.0   0.0 H        1 UNL1     0.0671
     33 H         0.341692   1.765173   1.919014 H        1 UNL1     0.0649
     34 H         1.716266   0.777086   3.820704 H        1 UNL1     0.0683
     35 H         0.972773   -1.451421   4.524425 H        1 UNL1     0.1085
     36 H         3.823833   -1.866082   5.347251 H        1 UNL1     0.0691
     37 H         2.056617   -4.110171   2.111327 H        1 UNL1     0.0691
     38 H         2.557323   -7.836535   5.215537 H        1 UNL1     0.0385
     39 H         4.154999   -8.60662   5.161278 H        1 UNL1     0.0385
     40 H         3.056249   -8.410333   2.897748 H        1 UNL1     0.0789
     41 H         5.250971   -9.736965   3.105263 H        1 UNL1     0.0623
     42 H         7.542994   -9.851325   2.213224 H        1 UNL1     0.0654
     43 H         7.392571   -5.666321   1.257979 H        1 UNL1     0.0654
     44 H         5.116047   -5.530054   2.097519 H        1 UNL1     0.0623
     45 H         8.869746   -8.069908   0.297059 H        1 UNL1     0.2921
     46 H         4.836919   -4.756252   6.99184 H        1 UNL1     0.2922
     47 H         0.180977   -2.488631   -0.283455 H        1 UNL1     0.2126
     48 H         -1.49622   1.374675   1.121265 H        1 UNL1     0.2101
     49 H         2.344136   1.756677   1.307738 H        1 UNL1     0.2100
     50 H         -0.597944   1.530706   3.749317 H        1 UNL1     0.2102
@<TRIPOS>BOND
     1     1     2    1
     2     1     6    1
     3     2     3    1
     4     3     4    1
     5     3    29    1
     6     3    33    1
     7     4     5    1
     8     5     6    1
     9     5     7    1
    10     5    35    1
    11     7     8    1
    12     8     9   ar
    13     8    13   ar
    14     9    10   ar
    15     9    36    1
    16    10    11   ar
    17    10    26    1
    18    11    12   ar
    19    11    14    1
    20    12    13   ar
    21    12    17    1
    22    13    37    1
    23    14    15    1
    24    14    25    2
    25    15    16    1
    26    15    38    1
    27    15    39    1
    28    16    17    1
    29    16    18    1
    30    16    40    1
    31    18    19   ar
    32    18    23   ar
    33    19    20   ar
    34    19    41    1
    35    20    21   ar
    36    20    42    1
    37    21    22   ar
    38    21    24    1
    39    22    23   ar
    40    22    43    1
    41    23    44    1
    42    24    45    1
    43    26    46    1
    44    27    47    1
    45    28    48    1
    46    29    49    1
    47    30    50    1
    48     1    31    1
    49     1    27    1
    50     2    32    1
    51     2    28    1
    52     4    34    1
    53     4    30    1
