@<TRIPOS>MOLECULE
*****
 50 53 0 0 0
SMALL
GASTEIGER

@<TRIPOS>ATOM
     1 C         -0.00117   -1.104685   1.88427 C.3        1 UNL1     0.1889
     2 C         -0.263982   -1.002971   0.357665 C.3        1 UNL1     0.1342
     3 C         -1.705106   -1.32346   -0.067673 C.3        1 UNL1     0.1174
     4 C         -2.34821   -2.415736   0.790505 C.3        1 UNL1     0.1456
     5 C         -2.124227   -2.191076   2.297065 C.3        1 UNL1     0.2326
     6 O         -0.727947   -2.110743   2.574224 O.3        1 UNL1     -0.3076
     7 O         -2.871355   -1.081707   2.828497 O.3        1 UNL1     -0.4605
     8 C         -3.273209   -1.197539   4.147066 C.ar        1 UNL1     0.1310
     9 C         -3.858085   -2.332363   4.719251 C.ar        1 UNL1     0.0226
     10 C         -4.215889   -2.357886   6.07248 C.ar        1 UNL1     0.1343
     11 C         -3.975417   -1.256473   6.892787 C.ar        1 UNL1     0.1007
     12 C         -3.429572   -0.102913   6.323459 C.ar        1 UNL1     0.1389
     13 C         -3.072321   -0.076571   4.96217 C.ar        1 UNL1     0.0229
     14 C         -4.256314   -1.258953   8.347175 C.2        1 UNL1     0.1740
     15 C         -3.73188   -0.079145   9.111748 C.3        1 UNL1     0.0520
     16 C         -3.948814   1.173207   8.273589 C.3        1 UNL1     0.1322
     17 O         -3.250323   1.07386   7.01291 O.3        1 UNL1     -0.4828
     18 C         -5.417283   1.588026   8.154221 C.ar        1 UNL1     -0.0067
     19 C         -5.950853   1.889045   6.884219 C.ar        1 UNL1     -0.0516
     20 C         -7.276488   2.317188   6.745121 C.ar        1 UNL1     -0.0198
     21 C         -8.074777   2.455076   7.866525 C.ar        1 UNL1     0.1169
     22 C         -7.588014   2.134177   9.12705 C.ar        1 UNL1     -0.0198
     23 C         -6.268011   1.688337   9.264443 C.ar        1 UNL1     -0.0516
     24 O         -9.349025   2.910747   7.696067 O.3        1 UNL1     -0.5068
     25 O         -4.80857   -2.18991   8.927533 O.2        1 UNL1     -0.2917
     26 O         -4.783439   -3.495115   6.568648 O.3        1 UNL1     -0.5058
     27 O         -0.07029   0.143961   2.554264 O.3        1 UNL1     -0.3648
     28 O         0.599498   -1.936731   -0.317022 O.3        1 UNL1     -0.3841
     29 O         -2.492442   -0.132461   -0.128966 O.3        1 UNL1     -0.3863
     30 O         -1.789799   -3.696229   0.424167 O.3        1 UNL1     -0.3829
     31 H         1.042399   -1.416443   2.001954 H        1 UNL1     0.0937
     32 H         0.0   0.0   0.0 H        1 UNL1     0.0671
     33 H         -1.673647   -1.705742   -1.097522 H        1 UNL1     0.0649
     34 H         -3.42386   -2.465434   0.588248 H        1 UNL1     0.0683
     35 H         -2.488465   -3.116962   2.759606 H        1 UNL1     0.1085
     36 H         -4.019679   -3.240014   4.148131 H        1 UNL1     0.0691
     37 H         -2.650042   0.834111   4.542847 H        1 UNL1     0.0691
     38 H         -2.666098   -0.251224   9.296205 H        1 UNL1     0.0385
     39 H         -4.241828   -0.023134   10.079526 H        1 UNL1     0.0385
     40 H         -3.454164   2.002654   8.796905 H        1 UNL1     0.0789
     41 H         -5.341936   1.797602   5.989508 H        1 UNL1     0.0623
     42 H         -7.672721   2.557675   5.761669 H        1 UNL1     0.0654
     43 H         -8.209125   2.224147   10.010247 H        1 UNL1     0.0654
     44 H         -5.92406   1.436387   10.262974 H        1 UNL1     0.0623
     45 H         -9.30769   3.795873   7.299128 H        1 UNL1     0.2921
     46 H         -4.258029   -3.818806   7.317368 H        1 UNL1     0.2922
     47 H         0.543616   0.774191   2.152035 H        1 UNL1     0.2126
     48 H         1.51594   -1.666973   -0.114299 H        1 UNL1     0.2101
     49 H         -2.199095   0.419216   -0.871525 H        1 UNL1     0.2100
     50 H         -2.059725   -3.890359   -0.497335 H        1 UNL1     0.2102
@<TRIPOS>BOND
     1     1     2    1
     2     1     6    1
     3     2     3    1
     4     3     4    1
     5     3    29    1
     6     3    33    1
     7     4     5    1
     8     5     6    1
     9     5     7    1
    10     5    35    1
    11     7     8    1
    12     8     9   ar
    13     8    13   ar
    14     9    10   ar
    15     9    36    1
    16    10    11   ar
    17    10    26    1
    18    11    12   ar
    19    11    14    1
    20    12    13   ar
    21    12    17    1
    22    13    37    1
    23    14    15    1
    24    14    25    2
    25    15    16    1
    26    15    38    1
    27    15    39    1
    28    16    17    1
    29    16    18    1
    30    16    40    1
    31    18    19   ar
    32    18    23   ar
    33    19    20   ar
    34    19    41    1
    35    20    21   ar
    36    20    42    1
    37    21    22   ar
    38    21    24    1
    39    22    23   ar
    40    22    43    1
    41    23    44    1
    42    24    45    1
    43    26    46    1
    44    27    47    1
    45    28    48    1
    46    29    49    1
    47    30    50    1
    48     1    31    1
    49     1    27    1
    50     2    32    1
    51     2    28    1
    52     4    34    1
    53     4    30    1
