@<TRIPOS>MOLECULE
*****
 50 53 0 0 0
SMALL
GASTEIGER

@<TRIPOS>ATOM
     1 C         -1.316539   -0.741366   1.57731 C.3        1 UNL1     0.1889
     2 C         -0.96684   -0.511863   0.082325 C.3        1 UNL1     0.1342
     3 C         -2.020854   0.277771   -0.708875 C.3        1 UNL1     0.1174
     4 C         -3.451269   -0.018362   -0.251342 C.3        1 UNL1     0.1456
     5 C         -3.598432   0.009071   1.280962 C.3        1 UNL1     0.2326
     6 O         -2.69383   -0.920561   1.872864 O.3        1 UNL1     -0.3076
     7 O         -3.499925   1.330455   1.84271 O.3        1 UNL1     -0.4605
     8 C         -3.448973   1.399995   3.223324 C.ar        1 UNL1     0.1310
     9 C         -4.25696   0.670138   4.101826 C.ar        1 UNL1     0.0226
     10 C         -4.117244   0.797783   5.488941 C.ar        1 UNL1     0.1343
     11 C         -3.149014   1.641419   6.031756 C.ar        1 UNL1     0.1007
     12 C         -2.363954   2.406239   5.164857 C.ar        1 UNL1     0.1389
     13 C         -2.506424   2.279693   3.770181 C.ar        1 UNL1     0.0229
     14 C         -2.901701   1.751413   7.488084 C.2        1 UNL1     0.1740
     15 C         -1.681225   2.530197   7.882397 C.3        1 UNL1     0.0520
     16 C         -1.572441   3.747614   6.974641 C.3        1 UNL1     0.1322
     17 O         -1.455691   3.34714   5.591507 O.3        1 UNL1     -0.4828
     18 C         -2.641162   4.810909   7.239145 C.ar        1 UNL1     -0.0067
     19 C         -3.050015   5.658151   6.188796 C.ar        1 UNL1     -0.0516
     20 C         -3.990403   6.671807   6.408189 C.ar        1 UNL1     -0.0198
     21 C         -4.522668   6.852772   7.672219 C.ar        1 UNL1     0.1169
     22 C         -4.164866   6.013062   8.718978 C.ar        1 UNL1     -0.0198
     23 C         -3.238315   4.987564   8.495567 C.ar        1 UNL1     -0.0516
     24 O         -5.407415   7.874346   7.856637 O.3        1 UNL1     -0.5068
     25 O         -3.587853   1.185426   8.335043 O.2        1 UNL1     -0.2917
     26 O         -4.937111   0.058691   6.290905 O.3        1 UNL1     -0.5058
     27 O         -0.71161   0.199263   2.450273 O.3        1 UNL1     -0.3648
     28 O         -0.825142   -1.794936   -0.555133 O.3        1 UNL1     -0.3841
     29 O         -1.716547   1.674022   -0.705379 O.3        1 UNL1     -0.3863
     30 O         -3.841781   -1.323109   -0.731786 O.3        1 UNL1     -0.3829
     31 H         -0.867177   -1.699567   1.860162 H        1 UNL1     0.0937
     32 H         0.0   0.0   0.0 H        1 UNL1     0.0671
     33 H         -1.952886   -0.033025   -1.760781 H        1 UNL1     0.0649
     34 H         -4.143199   0.706587   -0.694152 H        1 UNL1     0.0683
     35 H         -4.611009   -0.375374   1.456375 H        1 UNL1     0.1085
     36 H         -4.98986   -0.043947   3.742574 H        1 UNL1     0.0691
     37 H         -1.883846   2.887144   3.116812 H        1 UNL1     0.0691
     38 H         -0.814933   1.87061   7.764037 H        1 UNL1     0.0385
     39 H         -1.758245   2.807344   8.939296 H        1 UNL1     0.0385
     40 H         -0.614748   4.235599   7.200949 H        1 UNL1     0.0789
     41 H         -2.640218   5.542409   5.189636 H        1 UNL1     0.0623
     42 H         -4.288696   7.326253   5.592876 H        1 UNL1     0.0654
     43 H         -4.586816   6.136355   9.709264 H        1 UNL1     0.0654
     44 H         -2.989675   4.343596   9.333618 H        1 UNL1     0.0623
     45 H         -6.300543   7.498848   7.920203 H        1 UNL1     0.2921
     46 H         -4.861452   0.370942   7.206431 H        1 UNL1     0.2922
     47 H         -1.143051   0.178377   3.315884 H        1 UNL1     0.2126
     48 H         -0.361082   -2.373267   0.080409 H        1 UNL1     0.2101
     49 H         -2.167633   2.108238   0.036087 H        1 UNL1     0.2100
     50 H         -3.358057   -1.494328   -1.566297 H        1 UNL1     0.2102
@<TRIPOS>BOND
     1     1     2    1
     2     1     6    1
     3     2     3    1
     4     3     4    1
     5     3    29    1
     6     3    33    1
     7     4     5    1
     8     5     6    1
     9     5     7    1
    10     5    35    1
    11     7     8    1
    12     8     9   ar
    13     8    13   ar
    14     9    10   ar
    15     9    36    1
    16    10    11   ar
    17    10    26    1
    18    11    12   ar
    19    11    14    1
    20    12    13   ar
    21    12    17    1
    22    13    37    1
    23    14    15    1
    24    14    25    2
    25    15    16    1
    26    15    38    1
    27    15    39    1
    28    16    17    1
    29    16    18    1
    30    16    40    1
    31    18    19   ar
    32    18    23   ar
    33    19    20   ar
    34    19    41    1
    35    20    21   ar
    36    20    42    1
    37    21    22   ar
    38    21    24    1
    39    22    23   ar
    40    22    43    1
    41    23    44    1
    42    24    45    1
    43    26    46    1
    44    27    47    1
    45    28    48    1
    46    29    49    1
    47    30    50    1
    48     1    31    1
    49     1    27    1
    50     2    32    1
    51     2    28    1
    52     4    34    1
    53     4    30    1
