@<TRIPOS>MOLECULE
*****
 50 53 0 0 0
SMALL
GASTEIGER

@<TRIPOS>ATOM
     1 C         -0.338589   -1.332746   1.697041 C.3        1 UNL1     0.1889
     2 C         -0.465979   -0.974467   0.191934 C.3        1 UNL1     0.1342
     3 C         -1.906092   -0.955335   -0.343017 C.3        1 UNL1     0.1174
     4 C         -2.796781   -2.013753   0.312376 C.3        1 UNL1     0.1456
     5 C         -2.647176   -2.044599   1.844379 C.3        1 UNL1     0.2326
     6 O         -1.283462   -2.268412   2.195178 O.3        1 UNL1     -0.3076
     7 O         -3.219059   -0.897754   2.499373 O.3        1 UNL1     -0.4605
     8 C         -3.838642   -1.138781   3.712448 C.ar        1 UNL1     0.1310
     9 C         -4.731155   -2.184184   3.972938 C.ar        1 UNL1     0.0226
     10 C         -5.294739   -2.355111   5.243 C.ar        1 UNL1     0.1343
     11 C         -4.960712   -1.498041   6.290711 C.ar        1 UNL1     0.1007
     12 C         -4.102383   -0.425997   6.032302 C.ar        1 UNL1     0.1389
     13 C         -3.537892   -0.252781   4.7545 C.ar        1 UNL1     0.0229
     14 C         -5.461165   -1.682317   7.672646 C.2        1 UNL1     0.1740
     15 C         -4.827898   -0.807696   8.714548 C.3        1 UNL1     0.0520
     16 C         -4.642623   0.584594   8.127045 C.3        1 UNL1     0.1322
     17 O         -3.791035   0.539933   6.960908 O.3        1 UNL1     -0.4828
     18 C         -5.953893   1.348086   7.926107 C.ar        1 UNL1     -0.0067
     19 C         -6.204562   1.980929   6.691243 C.ar        1 UNL1     -0.0516
     20 C         -7.372091   2.726898   6.490323 C.ar        1 UNL1     -0.0198
     21 C         -8.2912   2.853425   7.516509 C.ar        1 UNL1     0.1169
     22 C         -8.088355   2.214239   8.732705 C.ar        1 UNL1     -0.0198
     23 C         -6.929694   1.452968   8.927709 C.ar        1 UNL1     -0.0516
     24 O         -9.398415   3.61902   7.296645 O.3        1 UNL1     -0.5068
     25 O         -6.280718   -2.541766   7.985959 O.2        1 UNL1     -0.2917
     26 O         -6.159073   -3.393931   5.431053 O.3        1 UNL1     -0.5058
     27 O         -0.230495   -0.197633   2.54121 O.3        1 UNL1     -0.3648
     28 O         0.2622   -1.952869   -0.573045 O.3        1 UNL1     -0.3841
     29 O         -2.459189   0.359905   -0.263257 O.3        1 UNL1     -0.3863
     30 O         -2.452972   -3.314006   -0.213768 O.3        1 UNL1     -0.3829
     31 H         0.620189   -1.849242   1.815598 H        1 UNL1     0.0937
     32 H         0.0   0.0   0.0 H        1 UNL1     0.0671
     33 H         -1.868546   -1.191507   -1.415646 H        1 UNL1     0.0649
     34 H         -3.845973   -1.831031   0.055063 H        1 UNL1     0.0683
     35 H         -3.205298   -2.939577   2.146692 H        1 UNL1     0.1085
     36 H         -4.987629   -2.916994   3.215752 H        1 UNL1     0.0691
     37 H         -2.873362   0.590444   4.578818 H        1 UNL1     0.0691
     38 H         -3.864542   -1.255109   8.981558 H        1 UNL1     0.0385
     39 H         -5.460541   -0.79898   9.608677 H        1 UNL1     0.0385
     40 H         -4.073633   1.172208   8.860175 H        1 UNL1     0.0789
     41 H         -5.494382   1.90434   5.873057 H        1 UNL1     0.0623
     42 H         -7.548302   3.220022   5.537543 H        1 UNL1     0.0654
     43 H         -8.808786   2.294281   9.53799 H        1 UNL1     0.0654
     44 H         -6.808719   0.958603   9.886778 H        1 UNL1     0.0623
     45 H         -9.110677   4.525793   7.102514 H        1 UNL1     0.2921
     46 H         -5.839187   -3.953748   6.156097 H        1 UNL1     0.2922
     47 H         0.512162   0.35663   2.263518 H        1 UNL1     0.2126
     48 H         1.197779   -1.879401   -0.302812 H        1 UNL1     0.2101
     49 H         -2.017679   0.942828   -0.901272 H        1 UNL1     0.2100
     50 H         -2.690312   -3.32708   -1.164142 H        1 UNL1     0.2102
@<TRIPOS>BOND
     1     1     2    1
     2     1     6    1
     3     2     3    1
     4     3     4    1
     5     3    29    1
     6     3    33    1
     7     4     5    1
     8     5     6    1
     9     5     7    1
    10     5    35    1
    11     7     8    1
    12     8     9   ar
    13     8    13   ar
    14     9    10   ar
    15     9    36    1
    16    10    11   ar
    17    10    26    1
    18    11    12   ar
    19    11    14    1
    20    12    13   ar
    21    12    17    1
    22    13    37    1
    23    14    15    1
    24    14    25    2
    25    15    16    1
    26    15    38    1
    27    15    39    1
    28    16    17    1
    29    16    18    1
    30    16    40    1
    31    18    19   ar
    32    18    23   ar
    33    19    20   ar
    34    19    41    1
    35    20    21   ar
    36    20    42    1
    37    21    22   ar
    38    21    24    1
    39    22    23   ar
    40    22    43    1
    41    23    44    1
    42    24    45    1
    43    26    46    1
    44    27    47    1
    45    28    48    1
    46    29    49    1
    47    30    50    1
    48     1    31    1
    49     1    27    1
    50     2    32    1
    51     2    28    1
    52     4    34    1
    53     4    30    1
