@<TRIPOS>MOLECULE
*****
 50 53 0 0 0
SMALL
GASTEIGER

@<TRIPOS>ATOM
     1 C         -0.173867   -1.240591   1.789276 C.3        1 UNL1     0.1889
     2 C         -0.373903   -0.995569   0.269444 C.3        1 UNL1     0.1342
     3 C         -1.824591   -1.134585   -0.217019 C.3        1 UNL1     0.1174
     4 C         -2.601188   -2.218809   0.534296 C.3        1 UNL1     0.1456
     5 C         -2.406763   -2.134632   2.059247 C.3        1 UNL1     0.2326
     6 O         -1.01949   -2.217867   2.377705 O.3        1 UNL1     -0.3076
     7 O         -3.057735   -0.999427   2.658302 O.3        1 UNL1     -0.4605
     8 C         -3.513552   -1.175197   3.952467 C.ar        1 UNL1     0.1310
     9 C         -4.227172   -2.285483   4.416484 C.ar        1 UNL1     0.0226
     10 C         -4.631398   -2.378827   5.753568 C.ar        1 UNL1     0.1343
     11 C         -4.31079   -1.374098   6.665473 C.ar        1 UNL1     0.1007
     12 C         -3.634224   -0.241485   6.204791 C.ar        1 UNL1     0.1389
     13 C         -3.230194   -0.146651   4.859727 C.ar        1 UNL1     0.0229
     14 C         -4.639674   -1.4602   8.1072 C.2        1 UNL1     0.1740
     15 C         -4.027004   -0.402258   8.977224 C.3        1 UNL1     0.0520
     16 C         -4.090103   0.926545   8.23678 C.3        1 UNL1     0.1322
     17 O         -3.362591   0.854299   6.990756 O.3        1 UNL1     -0.4828
     18 C         -5.505285   1.496326   8.112957 C.ar        1 UNL1     -0.0067
     19 C         -5.962353   1.948753   6.858121 C.ar        1 UNL1     -0.0516
     20 C         -7.233489   2.518804   6.719496 C.ar        1 UNL1     -0.0198
     21 C         -8.052355   2.648481   7.826957 C.ar        1 UNL1     0.1169
     22 C         -7.643478   2.181833   9.069494 C.ar        1 UNL1     -0.0198
     23 C         -6.379637   1.594937   9.204826 C.ar        1 UNL1     -0.0516
     24 O         -9.268582   3.243081   7.66069 O.3        1 UNL1     -0.5068
     25 O         -5.300908   -2.372228   8.596546 O.2        1 UNL1     -0.2917
     26 O         -5.325449   -3.487396   6.142096 O.3        1 UNL1     -0.5058
     27 O         -0.141406   -0.046656   2.554948 O.3        1 UNL1     -0.3648
     28 O         0.414989   -1.957366   -0.455333 O.3        1 UNL1     -0.3841
     29 O         -2.487561   0.131278   -0.203104 O.3        1 UNL1     -0.3863
     30 O         -2.160395   -3.517315   0.081226 O.3        1 UNL1     -0.3829
     31 H         0.829141   -1.664688   1.908419 H        1 UNL1     0.0937
     32 H         0.0   0.0   0.0 H        1 UNL1     0.0671
     33 H         -1.796597   -1.437691   -1.272984 H        1 UNL1     0.0649
     34 H         -3.66907   -2.143465   0.301158 H        1 UNL1     0.0683
     35 H         -2.876258   -3.051648   2.436785 H        1 UNL1     0.1085
     36 H         -4.45856   -3.125261   3.770456 H        1 UNL1     0.0691
     37 H         -2.705691   0.746048   4.525843 H        1 UNL1     0.0691
     38 H         -2.990416   -0.695404   9.174904 H        1 UNL1     0.0385
     39 H         -4.561384   -0.369554   9.932811 H        1 UNL1     0.0385
     40 H         -3.533633   1.658619   8.837553 H        1 UNL1     0.0789
     41 H         -5.335026   1.866549   5.975311 H        1 UNL1     0.0623
     42 H         -7.569843   2.874756   5.748838 H        1 UNL1     0.0654
     43 H         -8.282681   2.264718   9.940389 H        1 UNL1     0.0654
     44 H         -6.096932   1.231739   10.188193 H        1 UNL1     0.0623
     45 H         -9.12611   4.148222   7.339537 H        1 UNL1     0.2921
     46 H         -4.8611   -3.918824   6.876712 H        1 UNL1     0.2922
     47 H         0.544957   0.547224   2.220177 H        1 UNL1     0.2126
     48 H         1.346386   -1.79787   -0.208772 H        1 UNL1     0.2101
     49 H         -2.116415   0.705776   -0.891577 H        1 UNL1     0.2100
     50 H         -2.417131   -3.611577   -0.859472 H        1 UNL1     0.2102
@<TRIPOS>BOND
     1     1     2    1
     2     1     6    1
     3     2     3    1
     4     3     4    1
     5     3    29    1
     6     3    33    1
     7     4     5    1
     8     5     6    1
     9     5     7    1
    10     5    35    1
    11     7     8    1
    12     8     9   ar
    13     8    13   ar
    14     9    10   ar
    15     9    36    1
    16    10    11   ar
    17    10    26    1
    18    11    12   ar
    19    11    14    1
    20    12    13   ar
    21    12    17    1
    22    13    37    1
    23    14    15    1
    24    14    25    2
    25    15    16    1
    26    15    38    1
    27    15    39    1
    28    16    17    1
    29    16    18    1
    30    16    40    1
    31    18    19   ar
    32    18    23   ar
    33    19    20   ar
    34    19    41    1
    35    20    21   ar
    36    20    42    1
    37    21    22   ar
    38    21    24    1
    39    22    23   ar
    40    22    43    1
    41    23    44    1
    42    24    45    1
    43    26    46    1
    44    27    47    1
    45    28    48    1
    46    29    49    1
    47    30    50    1
    48     1    31    1
    49     1    27    1
    50     2    32    1
    51     2    28    1
    52     4    34    1
    53     4    30    1
