@<TRIPOS>MOLECULE
*****
 50 53 0 0 0
SMALL
GASTEIGER

@<TRIPOS>ATOM
     1 C         -0.34943   -1.370101   1.66479 C.3        1 UNL1     0.1889
     2 C         -0.502709   -0.959165   0.175637 C.3        1 UNL1     0.1342
     3 C         -1.954888   -0.861301   -0.316364 C.3        1 UNL1     0.1174
     4 C         -2.872556   -1.900758   0.33212 C.3        1 UNL1     0.1456
     5 C         -2.682004   -1.986534   1.857471 C.3        1 UNL1     0.2326
     6 O         -1.320195   -2.279671   2.161471 O.3        1 UNL1     -0.3076
     7 O         -3.184715   -0.837538   2.563453 O.3        1 UNL1     -0.4605
     8 C         -3.681116   -1.07518   3.832563 C.ar        1 UNL1     0.1310
     9 C         -4.541828   -2.120846   4.183358 C.ar        1 UNL1     0.0226
     10 C         -4.976993   -2.288118   5.503416 C.ar        1 UNL1     0.1343
     11 C         -4.542578   -1.42699   6.510186 C.ar        1 UNL1     0.1007
     12 C         -3.715721   -0.35472   6.164747 C.ar        1 UNL1     0.1389
     13 C         -3.280422   -0.185185   4.836891 C.ar        1 UNL1     0.0229
     14 C         -4.903854   -1.60714   7.93538 C.2        1 UNL1     0.1740
     15 C         -4.172264   -0.728088   8.906767 C.3        1 UNL1     0.0520
     16 C         -4.048189   0.662402   8.299232 C.3        1 UNL1     0.1322
     17 O         -3.315813   0.614825   7.054873 O.3        1 UNL1     -0.4828
     18 C         -5.374147   1.423472   8.226206 C.ar        1 UNL1     -0.0067
     19 C         -5.573131   2.548821   9.052164 C.ar        1 UNL1     -0.0516
     20 C         -6.791142   3.239007   9.044645 C.ar        1 UNL1     -0.0198
     21 C         -7.818197   2.81035   8.222917 C.ar        1 UNL1     0.1169
     22 C         -7.641009   1.725761   7.373735 C.ar        1 UNL1     -0.0198
     23 C         -6.416775   1.046593   7.367554 C.ar        1 UNL1     -0.0516
     24 O         -9.002983   3.484467   8.27035 O.3        1 UNL1     -0.5068
     25 O         -5.687056   -2.466575   8.330921 O.2        1 UNL1     -0.2917
     26 O         -5.816827   -3.327415   5.779324 O.3        1 UNL1     -0.5058
     27 O         -0.168345   -0.267997   2.53964 O.3        1 UNL1     -0.3648
     28 O         0.160414   -1.943179   -0.639647 O.3        1 UNL1     -0.3841
     29 O         -2.447421   0.473275   -0.180523 O.3        1 UNL1     -0.3863
     30 O         -2.600757   -3.197239   -0.243164 O.3        1 UNL1     -0.3829
     31 H         0.588725   -1.930766   1.739618 H        1 UNL1     0.0937
     32 H         0.0   0.0   0.0 H        1 UNL1     0.0671
     33 H         -1.957493   -1.064754   -1.396327 H        1 UNL1     0.0649
     34 H         -3.919472   -1.665114   0.111122 H        1 UNL1     0.0683
     35 H         -3.270188   -2.865866   2.148491 H        1 UNL1     0.1085
     36 H         -4.870592   -2.856607   3.457624 H        1 UNL1     0.0691
     37 H         -2.637872   0.658299   4.593667 H        1 UNL1     0.0691
     38 H         -3.186519   -1.173309   9.078844 H        1 UNL1     0.0385
     39 H         -4.71356   -0.717109   9.858953 H        1 UNL1     0.0385
     40 H         -3.410571   1.253296   8.970655 H        1 UNL1     0.0789
     41 H         -4.785703   2.899689   9.712846 H        1 UNL1     0.0623
     42 H         -6.936414   4.098146   9.694866 H        1 UNL1     0.0654
     43 H         -8.433503   1.390805   6.715199 H        1 UNL1     0.0654
     44 H         -6.309639   0.210056   6.683762 H        1 UNL1     0.0623
     45 H         -9.039641   4.093711   7.515238 H        1 UNL1     0.2921
     46 H         -5.585737   -3.710279   6.640384 H        1 UNL1     0.2922
     47 H         0.730696   -0.268252   2.89683 H        1 UNL1     0.2126
     48 H         -0.422737   -2.111483   -1.404723 H        1 UNL1     0.2101
     49 H         -2.970328   0.550824   0.633325 H        1 UNL1     0.2100
     50 H         -2.057027   -3.702729   0.396016 H        1 UNL1     0.2102
@<TRIPOS>BOND
     1     1     2    1
     2     1     6    1
     3     2     3    1
     4     3     4    1
     5     3    29    1
     6     3    33    1
     7     4     5    1
     8     5     6    1
     9     5     7    1
    10     5    35    1
    11     7     8    1
    12     8     9   ar
    13     8    13   ar
    14     9    10   ar
    15     9    36    1
    16    10    11   ar
    17    10    26    1
    18    11    12   ar
    19    11    14    1
    20    12    13   ar
    21    12    17    1
    22    13    37    1
    23    14    15    1
    24    14    25    2
    25    15    16    1
    26    15    38    1
    27    15    39    1
    28    16    17    1
    29    16    18    1
    30    16    40    1
    31    18    19   ar
    32    18    23   ar
    33    19    20   ar
    34    19    41    1
    35    20    21   ar
    36    20    42    1
    37    21    22   ar
    38    21    24    1
    39    22    23   ar
    40    22    43    1
    41    23    44    1
    42    24    45    1
    43    26    46    1
    44    27    47    1
    45    28    48    1
    46    29    49    1
    47    30    50    1
    48     1    31    1
    49     1    27    1
    50     2    32    1
    51     2    28    1
    52     4    34    1
    53     4    30    1
