@<TRIPOS>MOLECULE
*****
 50 53 0 0 0
SMALL
GASTEIGER

@<TRIPOS>ATOM
     1 C         -0.558003   -1.409257   1.572715 C.3        1 UNL1     0.1889
     2 C         -0.574255   -0.929795   0.096303 C.3        1 UNL1     0.1342
     3 C         -1.976887   -0.715799   -0.493012 C.3        1 UNL1     0.1174
     4 C         -3.004211   -1.716908   0.041313 C.3        1 UNL1     0.1456
     5 C         -2.932882   -1.876123   1.570995 C.3        1 UNL1     0.2326
     6 O         -1.618686   -2.271263   1.957804 O.3        1 UNL1     -0.3076
     7 O         -3.412426   -0.725342   2.290065 O.3        1 UNL1     -0.4605
     8 C         -4.004885   -0.978909   3.514084 C.ar        1 UNL1     0.1310
     9 C         -4.949785   -1.979608   3.765217 C.ar        1 UNL1     0.0226
     10 C         -5.480255   -2.168899   5.046885 C.ar        1 UNL1     0.1343
     11 C         -5.060527   -1.376715   6.114646 C.ar        1 UNL1     0.1007
     12 C         -4.148052   -0.347511   5.867844 C.ar        1 UNL1     0.1389
     13 C         -3.616795   -0.155674   4.578504 C.ar        1 UNL1     0.0229
     14 C         -5.525114   -1.587633   7.505267 C.2        1 UNL1     0.1740
     15 C         -4.80599   -0.795367   8.557277 C.3        1 UNL1     0.0520
     16 C         -4.556535   0.606473   8.018229 C.3        1 UNL1     0.1322
     17 O         -3.748322   0.559472   6.821712 O.3        1 UNL1     -0.4828
     18 C         -5.825235   1.453626   7.893903 C.ar        1 UNL1     -0.0067
     19 C         -6.079415   2.148015   6.693307 C.ar        1 UNL1     -0.0516
     20 C         -7.205786   2.969168   6.563077 C.ar        1 UNL1     -0.0198
     21 C         -8.079674   3.109736   7.626273 C.ar        1 UNL1     0.1169
     22 C         -7.874229   2.412586   8.809748 C.ar        1 UNL1     -0.0198
     23 C         -6.757836   1.576926   8.933829 C.ar        1 UNL1     -0.0516
     24 O         -9.145339   3.947631   7.475637 O.3        1 UNL1     -0.5068
     25 O         -6.384246   -2.40933   7.813798 O.2        1 UNL1     -0.2917
     26 O         -6.399047   -3.161725   5.224935 O.3        1 UNL1     -0.5058
     27 O         -0.372485   -0.357538   2.506662 O.3        1 UNL1     -0.3648
     28 O         0.083508   -1.92241   -0.712876 O.3        1 UNL1     -0.3841
     29 O         -2.392323   0.642123   -0.333037 O.3        1 UNL1     -0.3863
     30 O         -2.773521   -3.004571   -0.570566 O.3        1 UNL1     -0.3829
     31 H         0.334518   -2.033723   1.689021 H        1 UNL1     0.0937
     32 H         0.0   0.0   0.0 H        1 UNL1     0.0671
     33 H         -1.912498   -0.875273   -1.578435 H        1 UNL1     0.0649
     34 H         -4.01481   -1.403387   -0.24293 H        1 UNL1     0.0683
     35 H         -3.595669   -2.725247   1.779755 H        1 UNL1     0.1085
     36 H         -5.275009   -2.664342   2.989659 H        1 UNL1     0.0691
     37 H         -2.908737   0.65335   4.41229 H        1 UNL1     0.0691
     38 H         -3.863097   -1.309432   8.772257 H        1 UNL1     0.0385
     39 H         -5.406966   -0.78599   9.472984 H        1 UNL1     0.0385
     40 H         -3.929105   1.128926   8.753004 H        1 UNL1     0.0789
     41 H         -5.403761   2.061511   5.84734 H        1 UNL1     0.0623
     42 H         -7.384454   3.508747   5.636285 H        1 UNL1     0.0654
     43 H         -8.560343   2.503646   9.643334 H        1 UNL1     0.0654
     44 H         -6.634129   1.039139   9.868883 H        1 UNL1     0.0623
     45 H         -8.810057   4.841454   7.298485 H        1 UNL1     0.2921
     46 H         -6.088889   -3.76967   5.914585 H        1 UNL1     0.2922
     47 H         0.438971   0.129344   2.305801 H        1 UNL1     0.2126
     48 H         1.002678   -1.98332   -0.38861 H        1 UNL1     0.2101
     49 H         -1.861726   1.219145   -0.905145 H        1 UNL1     0.2100
     50 H         -2.959256   -2.920673   -1.528782 H        1 UNL1     0.2102
@<TRIPOS>BOND
     1     1     2    1
     2     1     6    1
     3     2     3    1
     4     3     4    1
     5     3    29    1
     6     3    33    1
     7     4     5    1
     8     5     6    1
     9     5     7    1
    10     5    35    1
    11     7     8    1
    12     8     9   ar
    13     8    13   ar
    14     9    10   ar
    15     9    36    1
    16    10    11   ar
    17    10    26    1
    18    11    12   ar
    19    11    14    1
    20    12    13   ar
    21    12    17    1
    22    13    37    1
    23    14    15    1
    24    14    25    2
    25    15    16    1
    26    15    38    1
    27    15    39    1
    28    16    17    1
    29    16    18    1
    30    16    40    1
    31    18    19   ar
    32    18    23   ar
    33    19    20   ar
    34    19    41    1
    35    20    21   ar
    36    20    42    1
    37    21    22   ar
    38    21    24    1
    39    22    23   ar
    40    22    43    1
    41    23    44    1
    42    24    45    1
    43    26    46    1
    44    27    47    1
    45    28    48    1
    46    29    49    1
    47    30    50    1
    48     1    31    1
    49     1    27    1
    50     2    32    1
    51     2    28    1
    52     4    34    1
    53     4    30    1
