@<TRIPOS>MOLECULE
*****
 50 53 0 0 0
SMALL
GASTEIGER

@<TRIPOS>ATOM
     1 C         -0.009666   -1.114723   1.878325 C.3        1 UNL1     0.1889
     2 C         -0.269202   -1.003654   0.351811 C.3        1 UNL1     0.1342
     3 C         -1.710986   -1.315286   -0.077852 C.3        1 UNL1     0.1174
     4 C         -2.360633   -2.409188   0.773297 C.3        1 UNL1     0.1456
     5 C         -2.138402   -2.193607   2.281443 C.3        1 UNL1     0.2326
     6 O         -0.742283   -2.121128   2.561563 O.3        1 UNL1     -0.3076
     7 O         -2.88145   -1.083698   2.817448 O.3        1 UNL1     -0.4605
     8 C         -3.293166   -1.20818   4.132181 C.ar        1 UNL1     0.1310
     9 C         -3.889834   -2.343813   4.690413 C.ar        1 UNL1     0.0226
     10 C         -4.257115   -2.378601   6.040894 C.ar        1 UNL1     0.1343
     11 C         -4.014652   -1.286078   6.872426 C.ar        1 UNL1     0.1007
     12 C         -3.456903   -0.131459   6.316948 C.ar        1 UNL1     0.1389
     13 C         -3.090114   -0.09578   4.958411 C.ar        1 UNL1     0.0229
     14 C         -4.305565   -1.299242   8.324786 C.2        1 UNL1     0.1740
     15 C         -3.778227   -0.129833   9.10321 C.3        1 UNL1     0.0520
     16 C         -3.980683   1.131253   8.274577 C.3        1 UNL1     0.1322
     17 O         -3.274236   1.037986   7.017873 O.3        1 UNL1     -0.4828
     18 C         -5.445379   1.557369   8.148825 C.ar        1 UNL1     -0.0067
     19 C         -5.963327   1.890239   6.880306 C.ar        1 UNL1     -0.0516
     20 C         -7.284909   2.329277   6.736673 C.ar        1 UNL1     -0.0198
     21 C         -8.094602   2.446458   7.852242 C.ar        1 UNL1     0.1169
     22 C         -7.623466   2.094206   9.110331 C.ar        1 UNL1     -0.0198
     23 C         -6.307598   1.637549   9.251796 C.ar        1 UNL1     -0.0516
     24 O         -9.364302   2.913422   7.678439 O.3        1 UNL1     -0.5068
     25 O         -4.868256   -2.231322   8.893196 O.2        1 UNL1     -0.2917
     26 O         -4.83595   -3.5161   6.523211 O.3        1 UNL1     -0.5058
     27 O         -0.074334   0.130627   2.554867 O.3        1 UNL1     -0.3648
     28 O         0.591257   -1.937723   -0.326296 O.3        1 UNL1     -0.3841
     29 O         -2.492778   -0.120397   -0.134199 O.3        1 UNL1     -0.3863
     30 O         -1.807384   -3.69024   0.401125 O.3        1 UNL1     -0.3829
     31 H         1.032255   -1.431863   1.996232 H        1 UNL1     0.0937
     32 H         0.0   0.0   0.0 H        1 UNL1     0.0671
     33 H         -1.679373   -1.692199   -1.109674 H        1 UNL1     0.0649
     34 H         -3.436124   -2.452897   0.568824 H        1 UNL1     0.0683
     35 H         -2.507702   -3.120281   2.738359 H        1 UNL1     0.1085
     36 H         -4.053792   -3.245307   4.110285 H        1 UNL1     0.0691
     37 H         -2.658644   0.815536   4.549961 H        1 UNL1     0.0691
     38 H         -2.714961   -0.310971   9.293423 H        1 UNL1     0.0385
     39 H         -4.294424   -0.078673   10.067939 H        1 UNL1     0.0385
     40 H         -3.483899   1.95263   8.808492 H        1 UNL1     0.0789
     41 H         -5.345204   1.815478   5.990371 H        1 UNL1     0.0623
     42 H         -7.669004   2.594325   5.75472 H        1 UNL1     0.0654
     43 H         -8.253665   2.167828   9.98859 H        1 UNL1     0.0654
     44 H         -5.976011   1.361009   10.247999 H        1 UNL1     0.0623
     45 H         -9.313466   3.810703   7.310989 H        1 UNL1     0.2921
     46 H         -4.31938   -3.848571   7.27423 H        1 UNL1     0.2922
     47 H         0.540054   0.761511   2.154402 H        1 UNL1     0.2126
     48 H         1.508557   -1.661003   -0.137302 H        1 UNL1     0.2101
     49 H         -2.201236   0.429935   -0.878464 H        1 UNL1     0.2100
     50 H         -2.081214   -3.880805   -0.519969 H        1 UNL1     0.2102
@<TRIPOS>BOND
     1     1     2    1
     2     1     6    1
     3     2     3    1
     4     3     4    1
     5     3    29    1
     6     3    33    1
     7     4     5    1
     8     5     6    1
     9     5     7    1
    10     5    35    1
    11     7     8    1
    12     8     9   ar
    13     8    13   ar
    14     9    10   ar
    15     9    36    1
    16    10    11   ar
    17    10    26    1
    18    11    12   ar
    19    11    14    1
    20    12    13   ar
    21    12    17    1
    22    13    37    1
    23    14    15    1
    24    14    25    2
    25    15    16    1
    26    15    38    1
    27    15    39    1
    28    16    17    1
    29    16    18    1
    30    16    40    1
    31    18    19   ar
    32    18    23   ar
    33    19    20   ar
    34    19    41    1
    35    20    21   ar
    36    20    42    1
    37    21    22   ar
    38    21    24    1
    39    22    23   ar
    40    22    43    1
    41    23    44    1
    42    24    45    1
    43    26    46    1
    44    27    47    1
    45    28    48    1
    46    29    49    1
    47    30    50    1
    48     1    31    1
    49     1    27    1
    50     2    32    1
    51     2    28    1
    52     4    34    1
    53     4    30    1
