@<TRIPOS>MOLECULE
*****
 50 53 0 0 0
SMALL
GASTEIGER

@<TRIPOS>ATOM
     1 C         0.545379   -0.917107   -1.905854 C.3        1 UNL1     0.1889
     2 C         -0.305369   0.061154   -1.051937 C.3        1 UNL1     0.1342
     3 C         -1.823031   -0.158347   -1.146734 C.3        1 UNL1     0.1174
     4 C         -2.27109   -0.613805   -2.537747 C.3        1 UNL1     0.1456
     5 C         -1.390114   -1.743841   -3.10101 C.3        1 UNL1     0.2326
     6 O         -0.027806   -1.324898   -3.13937 O.3        1 UNL1     -0.3076
     7 O         -1.575993   -3.003809   -2.43075 O.3        1 UNL1     -0.4605
     8 C         -0.509524   -3.449241   -1.670644 C.ar        1 UNL1     0.1310
     9 C         0.768034   -2.879257   -1.654379 C.ar        1 UNL1     0.0226
     10 C         1.779825   -3.394034   -0.835118 C.ar        1 UNL1     0.1343
     11 C         1.531502   -4.477621   0.006318 C.ar        1 UNL1     0.1007
     12 C         0.271578   -5.080901   -0.031464 C.ar        1 UNL1     0.1389
     13 C         -0.744824   -4.564756   -0.857267 C.ar        1 UNL1     0.0229
     14 C         2.538713   -5.00903   0.953569 C.2        1 UNL1     0.1740
     15 C         2.034052   -6.025477   1.935252 C.3        1 UNL1     0.0520
     16 C         1.069938   -6.956089   1.212478 C.3        1 UNL1     0.1322
     17 O         -0.048821   -6.217631   0.673842 O.3        1 UNL1     -0.4828
     18 C         1.751369   -7.893807   0.212948 C.ar        1 UNL1     -0.0067
     19 C         1.740427   -9.283887   0.449108 C.ar        1 UNL1     -0.0516
     20 C         2.394701   -10.165287   -0.419811 C.ar        1 UNL1     -0.0198
     21 C         3.068165   -9.669557   -1.521867 C.ar        1 UNL1     0.1169
     22 C         3.068617   -8.308738   -1.799374 C.ar        1 UNL1     -0.0198
     23 C         2.398853   -7.42885   -0.940731 C.ar        1 UNL1     -0.0516
     24 O         3.725691   -10.554656   -2.324774 O.3        1 UNL1     -0.5068
     25 O         3.696803   -4.60349   1.006952 O.2        1 UNL1     -0.2917
     26 O         3.004291   -2.792983   -0.866819 O.3        1 UNL1     -0.5058
     27 O         1.045053   -2.022232   -1.169776 O.3        1 UNL1     -0.3648
     28 O         -0.038283   1.404489   -1.495584 O.3        1 UNL1     -0.3841
     29 O         -2.275453   -1.028239   -0.107151 O.3        1 UNL1     -0.3863
     30 O         -2.21986   0.50989   -3.443492 O.3        1 UNL1     -0.3829
     31 H         1.442975   -0.367574   -2.20985 H        1 UNL1     0.0937
     32 H         0.0   0.0   0.0 H        1 UNL1     0.0671
     33 H         -2.313971   0.805905   -0.954599 H        1 UNL1     0.0649
     34 H         -3.313113   -0.950564   -2.503382 H        1 UNL1     0.0683
     35 H         -1.722315   -1.844396   -4.14188 H        1 UNL1     0.1085
     36 H         1.008132   -2.001   -2.243562 H        1 UNL1     0.0691
     37 H         -1.716791   -5.053253   -0.869248 H        1 UNL1     0.0691
     38 H         1.529772   -5.484084   2.742792 H        1 UNL1     0.0385
     39 H         2.885964   -6.56392   2.364325 H        1 UNL1     0.0385
     40 H         0.624925   -7.613938   1.97124 H        1 UNL1     0.0789
     41 H         1.226616   -9.69711   1.312182 H        1 UNL1     0.0623
     42 H         2.38909   -11.234027   -0.220372 H        1 UNL1     0.0654
     43 H         3.580172   -7.911299   -2.667858 H        1 UNL1     0.0654
     44 H         2.4109   -6.373091   -1.193857 H        1 UNL1     0.0623
     45 H         3.448222   -11.453046   -2.082649 H        1 UNL1     0.2921
     46 H         2.921648   -1.874349   -0.565664 H        1 UNL1     0.2922
     47 H         1.966848   -2.193866   -1.407882 H        1 UNL1     0.2126
     48 H         -0.643207   1.57787   -2.242403 H        1 UNL1     0.2101
     49 H         -2.351452   -0.535692   0.725565 H        1 UNL1     0.2100
     50 H         -1.852102   0.194352   -4.294904 H        1 UNL1     0.2102
@<TRIPOS>BOND
     1     1     2    1
     2     1     6    1
     3     2     3    1
     4     3     4    1
     5     3    29    1
     6     3    33    1
     7     4     5    1
     8     5     6    1
     9     5     7    1
    10     5    35    1
    11     7     8    1
    12     8     9   ar
    13     8    13   ar
    14     9    10   ar
    15     9    36    1
    16    10    11   ar
    17    10    26    1
    18    11    12   ar
    19    11    14    1
    20    12    13   ar
    21    12    17    1
    22    13    37    1
    23    14    15    1
    24    14    25    2
    25    15    16    1
    26    15    38    1
    27    15    39    1
    28    16    17    1
    29    16    18    1
    30    16    40    1
    31    18    19   ar
    32    18    23   ar
    33    19    20   ar
    34    19    41    1
    35    20    21   ar
    36    20    42    1
    37    21    22   ar
    38    21    24    1
    39    22    23   ar
    40    22    43    1
    41    23    44    1
    42    24    45    1
    43    26    46    1
    44    27    47    1
    45    28    48    1
    46    29    49    1
    47    30    50    1
    48     1    31    1
    49     1    27    1
    50     2    32    1
    51     2    28    1
    52     4    34    1
    53     4    30    1
