@<TRIPOS>MOLECULE
*****
 50 53 0 0 0
SMALL
GASTEIGER

@<TRIPOS>ATOM
     1 C         -0.390485   -1.381193   1.6464 C.3        1 UNL1     0.1889
     2 C         -0.492278   -0.96835   0.15337 C.3        1 UNL1     0.1342
     3 C         -1.925478   -0.894351   -0.395199 C.3        1 UNL1     0.1174
     4 C         -2.849516   -1.951713   0.214112 C.3        1 UNL1     0.1456
     5 C         -2.717627   -2.038907   1.745571 C.3        1 UNL1     0.2326
     6 O         -1.363884   -2.309142   2.102251 O.3        1 UNL1     -0.3076
     7 O         -3.267852   -0.901086   2.434001 O.3        1 UNL1     -0.4605
     8 C         -3.809529   -1.151332   3.681995 C.ar        1 UNL1     0.1310
     9 C         -4.659307   -2.216937   3.997686 C.ar        1 UNL1     0.0226
     10 C         -5.143502   -2.395465   5.299065 C.ar        1 UNL1     0.1343
     11 C         -4.770178   -1.52548   6.322586 C.ar        1 UNL1     0.1007
     12 C         -3.95505   -0.434064   6.010878 C.ar        1 UNL1     0.1389
     13 C         -3.470458   -0.253264   4.701713 C.ar        1 UNL1     0.0229
     14 C         -5.184516   -1.715274   7.732002 C.2        1 UNL1     0.1740
     15 C         -4.513324   -0.820468   8.732189 C.3        1 UNL1     0.0520
     16 C         -4.396978   0.57309   8.130179 C.3        1 UNL1     0.1322
     17 O         -3.613986   0.543623   6.916456 O.3        1 UNL1     -0.4828
     18 C         -5.736145   1.303386   8.003595 C.ar        1 UNL1     -0.0067
     19 C         -5.820606   2.461258   7.203337 C.ar        1 UNL1     -0.0516
     20 C         -7.017985   3.179813   7.103709 C.ar        1 UNL1     -0.0198
     21 C         -8.133432   2.755922   7.803653 C.ar        1 UNL1     0.1169
     22 C         -8.090649   1.600708   8.573386 C.ar        1 UNL1     -0.0198
     23 C         -6.898487   0.871628   8.658529 C.ar        1 UNL1     -0.0516
     24 O         -9.271349   3.502375   7.712256 O.3        1 UNL1     -0.5068
     25 O         -5.962984   -2.59295   8.095539 O.2        1 UNL1     -0.2917
     26 O         -5.969544   -3.454151   5.540775 O.3        1 UNL1     -0.5058
     27 O         -0.263365   -0.27883   2.530381 O.3        1 UNL1     -0.3648
     28 O         0.219607   -1.938071   -0.637559 O.3        1 UNL1     -0.3841
     29 O         -2.446373   0.430979   -0.275614 O.3        1 UNL1     -0.3863
     30 O         -2.532535   -3.241441   -0.353174 O.3        1 UNL1     -0.3829
     31 H         0.553719   -1.925602   1.756752 H        1 UNL1     0.0937
     32 H         0.0   0.0   0.0 H        1 UNL1     0.0671
     33 H         -1.882024   -1.094445   -1.474918 H        1 UNL1     0.0649
     34 H         -3.890912   -1.733717   -0.04737 H        1 UNL1     0.0683
     35 H         -3.301244   -2.929292   2.011062 H        1 UNL1     0.1085
     36 H         -4.941357   -2.959415   3.259245 H        1 UNL1     0.0691
     37 H         -2.838279   0.605072   4.484681 H        1 UNL1     0.0691
     38 H         -3.525309   -1.242955   8.943986 H        1 UNL1     0.0385
     39 H         -5.092783   -0.822899   9.661704 H        1 UNL1     0.0385
     40 H         -3.800864   1.177926   8.826844 H        1 UNL1     0.0789
     41 H         -4.95665   2.819738   6.65132 H        1 UNL1     0.0623
     42 H         -7.06718   4.077799   6.492798 H        1 UNL1     0.0654
     43 H         -8.962432   1.251405   9.113657 H        1 UNL1     0.0654
     44 H         -6.90391   -0.031895   9.260578 H        1 UNL1     0.0623
     45 H         -9.102986   4.368939   8.11653 H        1 UNL1     0.2921
     46 H         -5.605484   -3.990283   6.26288 H        1 UNL1     0.2922
     47 H         0.485976   0.274698   2.269701 H        1 UNL1     0.2126
     48 H         1.170755   -1.787614   -0.475039 H        1 UNL1     0.2101
     49 H         -2.122133   0.980245   -1.007029 H        1 UNL1     0.2100
     50 H         -2.780671   -3.223273   -1.300703 H        1 UNL1     0.2102
@<TRIPOS>BOND
     1     1     2    1
     2     1     6    1
     3     2     3    1
     4     3     4    1
     5     3    29    1
     6     3    33    1
     7     4     5    1
     8     5     6    1
     9     5     7    1
    10     5    35    1
    11     7     8    1
    12     8     9   ar
    13     8    13   ar
    14     9    10   ar
    15     9    36    1
    16    10    11   ar
    17    10    26    1
    18    11    12   ar
    19    11    14    1
    20    12    13   ar
    21    12    17    1
    22    13    37    1
    23    14    15    1
    24    14    25    2
    25    15    16    1
    26    15    38    1
    27    15    39    1
    28    16    17    1
    29    16    18    1
    30    16    40    1
    31    18    19   ar
    32    18    23   ar
    33    19    20   ar
    34    19    41    1
    35    20    21   ar
    36    20    42    1
    37    21    22   ar
    38    21    24    1
    39    22    23   ar
    40    22    43    1
    41    23    44    1
    42    24    45    1
    43    26    46    1
    44    27    47    1
    45    28    48    1
    46    29    49    1
    47    30    50    1
    48     1    31    1
    49     1    27    1
    50     2    32    1
    51     2    28    1
    52     4    34    1
    53     4    30    1
