@<TRIPOS>MOLECULE
*****
 50 53 0 0 0
SMALL
GASTEIGER

@<TRIPOS>ATOM
     1 C         0.326726   -0.617089   2.069603 C.3        1 UNL1     0.1889
     2 C         0.022217   -0.930911   0.580062 C.3        1 UNL1     0.1342
     3 C         -1.285412   -1.701374   0.341401 C.3        1 UNL1     0.1174
     4 C         -1.596209   -2.702825   1.456577 C.3        1 UNL1     0.1456
     5 C         -1.417497   -2.096951   2.860622 C.3        1 UNL1     0.2326
     6 O         -0.090549   -1.596865   3.00892 O.3        1 UNL1     -0.3076
     7 O         -2.427885   -1.130055   3.200549 O.3        1 UNL1     -0.4605
     8 C         -2.762746   -1.048631   4.540238 C.ar        1 UNL1     0.1310
     9 C         -3.010503   -2.138833   5.381295 C.ar        1 UNL1     0.0226
     10 C         -3.326787   -1.953379   6.732396 C.ar        1 UNL1     0.1343
     11 C         -3.379667   -0.67288   7.281364 C.ar        1 UNL1     0.1007
     12 C         -3.174501   0.425425   6.442069 C.ar        1 UNL1     0.1389
     13 C         -2.859096   0.238795   5.082981 C.ar        1 UNL1     0.0229
     14 C         -3.626537   -0.423196   8.720415 C.2        1 UNL1     0.1740
     15 C         -3.428072   0.992259   9.177194 C.3        1 UNL1     0.0520
     16 C         -3.98817   1.925173   8.112338 C.3        1 UNL1     0.1322
     17 O         -3.308725   1.731581   6.8522 O.3        1 UNL1     -0.4828
     18 C         -5.515791   1.906772   8.018751 C.ar        1 UNL1     -0.0067
     19 C         -6.130733   1.767199   6.757569 C.ar        1 UNL1     -0.0516
     20 C         -7.524748   1.794008   6.631213 C.ar        1 UNL1     -0.0198
     21 C         -8.312869   1.966764   7.754978 C.ar        1 UNL1     0.1169
     22 C         -7.737774   2.073386   9.014635 C.ar        1 UNL1     -0.0198
     23 C         -6.344431   2.028107   9.143485 C.ar        1 UNL1     -0.0516
     24 O         -9.665336   2.025777   7.58839 O.3        1 UNL1     -0.5068
     25 O         -3.89779   -1.311573   9.523965 O.2        1 UNL1     -0.2917
     26 O         -3.558409   -3.058325   7.498575 O.3        1 UNL1     -0.5058
     27 O         -0.066324   0.687727   2.464258 O.3        1 UNL1     -0.3648
     28 O         1.094964   -1.734614   0.054723 O.3        1 UNL1     -0.3841
     29 O         -2.365874   -0.800676   0.089457 O.3        1 UNL1     -0.3863
     30 O         -0.718718   -3.842617   1.327836 O.3        1 UNL1     -0.3829
     31 H         1.417429   -0.612612   2.171711 H        1 UNL1     0.0937
     32 H         -0.0   0.0   0.0 H        1 UNL1     0.0671
     33 H         -1.168145   -2.28246   -0.583968 H        1 UNL1     0.0649
     34 H         -2.62156   -3.07411   1.350733 H        1 UNL1     0.0683
     35 H         -1.510959   -2.958051   3.534158 H        1 UNL1     0.1085
     36 H         -2.930063   -3.161131   5.028368 H        1 UNL1     0.0691
     37 H         -2.704972   1.110345   4.450414 H        1 UNL1     0.0691
     38 H         -2.352636   1.148651   9.313234 H        1 UNL1     0.0385
     39 H         -3.918909   1.128665   10.146859 H        1 UNL1     0.0385
     40 H         -3.727603   2.949831   8.410166 H        1 UNL1     0.0789
     41 H         -5.533898   1.639539   5.859158 H        1 UNL1     0.0623
     42 H         -7.986618   1.697268   5.65176 H        1 UNL1     0.0654
     43 H         -8.346132   2.193921   9.90305 H        1 UNL1     0.0654
     44 H         -5.929564   2.103867   10.143981 H        1 UNL1     0.0623
     45 H         -9.87074   2.779578   7.011926 H        1 UNL1     0.2921
     46 H         -2.953587   -3.058514   8.257259 H        1 UNL1     0.2922
     47 H         0.348263   1.349396   1.893143 H        1 UNL1     0.2126
     48 H         1.907644   -1.19784   0.126539 H        1 UNL1     0.2101
     49 H         -2.244059   -0.372117   -0.772687 H        1 UNL1     0.2100
     50 H         -0.940693   -4.301014   0.49099 H        1 UNL1     0.2102
@<TRIPOS>BOND
     1     1     2    1
     2     1     6    1
     3     2     3    1
     4     3     4    1
     5     3    29    1
     6     3    33    1
     7     4     5    1
     8     5     6    1
     9     5     7    1
    10     5    35    1
    11     7     8    1
    12     8     9   ar
    13     8    13   ar
    14     9    10   ar
    15     9    36    1
    16    10    11   ar
    17    10    26    1
    18    11    12   ar
    19    11    14    1
    20    12    13   ar
    21    12    17    1
    22    13    37    1
    23    14    15    1
    24    14    25    2
    25    15    16    1
    26    15    38    1
    27    15    39    1
    28    16    17    1
    29    16    18    1
    30    16    40    1
    31    18    19   ar
    32    18    23   ar
    33    19    20   ar
    34    19    41    1
    35    20    21   ar
    36    20    42    1
    37    21    22   ar
    38    21    24    1
    39    22    23   ar
    40    22    43    1
    41    23    44    1
    42    24    45    1
    43    26    46    1
    44    27    47    1
    45    28    48    1
    46    29    49    1
    47    30    50    1
    48     1    31    1
    49     1    27    1
    50     2    32    1
    51     2    28    1
    52     4    34    1
    53     4    30    1
