@<TRIPOS>MOLECULE
*****
 50 53 0 0 0
SMALL
GASTEIGER

@<TRIPOS>ATOM
     1 C         0.669066   -1.974619   0.651181 C.3        1 UNL1     0.1889
     2 C         -0.247046   -1.050817   -0.195738 C.3        1 UNL1     0.1342
     3 C         -1.752459   -1.261607   0.02734 C.3        1 UNL1     0.1174
     4 C         -2.112906   -2.72397   0.300635 C.3        1 UNL1     0.1456
     5 C         -1.179967   -3.378243   1.335969 C.3        1 UNL1     0.2326
     6 O         0.173959   -3.282139   0.899486 O.3        1 UNL1     -0.3076
     7 O         -1.378633   -2.890761   2.675451 O.3        1 UNL1     -0.4605
     8 C         -1.140121   -3.797798   3.692272 C.ar        1 UNL1     0.1310
     9 C         -1.592663   -5.121326   3.7202 C.ar        1 UNL1     0.0226
     10 C         -1.28329   -5.969556   4.790105 C.ar        1 UNL1     0.1343
     11 C         -0.493079   -5.521419   5.847734 C.ar        1 UNL1     0.1007
     12 C         -0.069637   -4.189702   5.850933 C.ar        1 UNL1     0.1389
     13 C         -0.383059   -3.336245   4.776313 C.ar        1 UNL1     0.0229
     14 C         -0.066032   -6.398935   6.962073 C.2        1 UNL1     0.1740
     15 C         0.959314   -5.817127   7.890359 C.3        1 UNL1     0.0520
     16 C         0.61496   -4.353994   8.132475 C.3        1 UNL1     0.1322
     17 O         0.620936   -3.613715   6.891902 O.3        1 UNL1     -0.4828
     18 C         -0.638006   -4.149187   8.987375 C.ar        1 UNL1     -0.0067
     19 C         -1.630426   -3.245097   8.556171 C.ar        1 UNL1     -0.0516
     20 C         -2.76602   -2.998898   9.337052 C.ar        1 UNL1     -0.0198
     21 C         -2.916979   -3.643475   10.551778 C.ar        1 UNL1     0.1169
     22 C         -1.973236   -4.564406   10.987751 C.ar        1 UNL1     -0.0198
     23 C         -0.846593   -4.824626   10.198436 C.ar        1 UNL1     -0.0516
     24 O         -4.017312   -3.350066   11.302497 O.3        1 UNL1     -0.5068
     25 O         -0.448934   -7.558388   7.094509 O.2        1 UNL1     -0.2917
     26 O         -1.756323   -7.248905   4.757099 O.3        1 UNL1     -0.5058
     27 O         1.148049   -1.361864   1.837727 O.3        1 UNL1     -0.3648
     28 O         0.018362   -1.298384   -1.588927 O.3        1 UNL1     -0.3841
     29 O         -2.245477   -0.373009   1.032059 O.3        1 UNL1     -0.3863
     30 O         -2.032805   -3.470185   -0.933236 O.3        1 UNL1     -0.3829
     31 H         1.571455   -2.151313   0.055738 H        1 UNL1     0.0937
     32 H         0.0   0.0   0.0 H        1 UNL1     0.0671
     33 H         -2.272026   -0.973677   -0.89725 H        1 UNL1     0.0649
     34 H         -3.148483   -2.794645   0.651329 H        1 UNL1     0.0683
     35 H         -1.451279   -4.44085   1.302294 H        1 UNL1     0.1085
     36 H         -2.163716   -5.546082   2.901908 H        1 UNL1     0.0691
     37 H         -0.042361   -2.303438   4.803305 H        1 UNL1     0.0691
     38 H         1.937602   -5.918106   7.408403 H        1 UNL1     0.0385
     39 H         0.973782   -6.398196   8.81876 H        1 UNL1     0.0385
     40 H         1.438558   -3.919765   8.715271 H        1 UNL1     0.0789
     41 H         -1.53085   -2.71965   7.610846 H        1 UNL1     0.0623
     42 H         -3.518441   -2.290566   8.999208 H        1 UNL1     0.0654
     43 H         -2.088973   -5.086032   11.930313 H        1 UNL1     0.0654
     44 H         -0.134734   -5.55795   10.564957 H        1 UNL1     0.0623
     45 H         -3.996951   -2.403977   11.519794 H        1 UNL1     0.2921
     46 H         -1.014709   -7.870064   4.831813 H        1 UNL1     0.2922
     47 H         1.607104   -0.53688   1.626708 H        1 UNL1     0.2126
     48 H         0.951539   -1.055356   -1.743364 H        1 UNL1     0.2101
     49 H         -2.23408   0.53897   0.700457 H        1 UNL1     0.2100
     50 H         -2.72911   -3.133895   -1.534719 H        1 UNL1     0.2102
@<TRIPOS>BOND
     1     1     2    1
     2     1     6    1
     3     2     3    1
     4     3     4    1
     5     3    29    1
     6     3    33    1
     7     4     5    1
     8     5     6    1
     9     5     7    1
    10     5    35    1
    11     7     8    1
    12     8     9   ar
    13     8    13   ar
    14     9    10   ar
    15     9    36    1
    16    10    11   ar
    17    10    26    1
    18    11    12   ar
    19    11    14    1
    20    12    13   ar
    21    12    17    1
    22    13    37    1
    23    14    15    1
    24    14    25    2
    25    15    16    1
    26    15    38    1
    27    15    39    1
    28    16    17    1
    29    16    18    1
    30    16    40    1
    31    18    19   ar
    32    18    23   ar
    33    19    20   ar
    34    19    41    1
    35    20    21   ar
    36    20    42    1
    37    21    22   ar
    38    21    24    1
    39    22    23   ar
    40    22    43    1
    41    23    44    1
    42    24    45    1
    43    26    46    1
    44    27    47    1
    45    28    48    1
    46    29    49    1
    47    30    50    1
    48     1    31    1
    49     1    27    1
    50     2    32    1
    51     2    28    1
    52     4    34    1
    53     4    30    1
