@<TRIPOS>MOLECULE
*****
 50 53 0 0 0
SMALL
GASTEIGER

@<TRIPOS>ATOM
     1 C         -0.30956   -1.371711   1.671342 C.3        1 UNL1     0.1889
     2 C         -0.462004   -0.979148   0.177155 C.3        1 UNL1     0.1342
     3 C         -1.910749   -0.9494   -0.33345 C.3        1 UNL1     0.1174
     4 C         -2.789706   -2.023595   0.312041 C.3        1 UNL1     0.1456
     5 C         -2.614859   -2.089404   1.840263 C.3        1 UNL1     0.2326
     6 O         -1.245379   -2.319641   2.163348 O.3        1 UNL1     -0.3076
     7 O         -3.176754   -0.958542   2.53073 O.3        1 UNL1     -0.4605
     8 C         -3.674762   -1.207635   3.797012 C.ar        1 UNL1     0.1310
     9 C         -4.493187   -2.286619   4.148119 C.ar        1 UNL1     0.0226
     10 C         -4.93353   -2.462391   5.465353 C.ar        1 UNL1     0.1343
     11 C         -4.546211   -1.575763   6.469204 C.ar        1 UNL1     0.1007
     12 C         -3.762802   -0.471615   6.122924 C.ar        1 UNL1     0.1389
     13 C         -3.322346   -0.293636   4.797875 C.ar        1 UNL1     0.0229
     14 C         -4.913201   -1.760427   7.892359 C.2        1 UNL1     0.1740
     15 C         -4.229421   -0.843393   8.863463 C.3        1 UNL1     0.0520
     16 C         -4.159226   0.546485   8.245992 C.3        1 UNL1     0.1322
     17 O         -3.413477   0.520957   7.008949 O.3        1 UNL1     -0.4828
     18 C         -5.515838   1.249304   8.154488 C.ar        1 UNL1     -0.0067
     19 C         -5.896764   1.864677   6.944353 C.ar        1 UNL1     -0.0516
     20 C         -7.109488   2.556458   6.840899 C.ar        1 UNL1     -0.0198
     21 C         -7.944776   2.646119   7.940027 C.ar        1 UNL1     0.1169
     22 C         -7.612726   2.022175   9.13555 C.ar        1 UNL1     -0.0198
     23 C         -6.408631   1.314682   9.233858 C.ar        1 UNL1     -0.0516
     24 O         -9.09992   3.360134   7.812653 O.3        1 UNL1     -0.5068
     25 O         -5.662611   -2.649686   8.28744 O.2        1 UNL1     -0.2917
     26 O         -5.730645   -3.534683   5.741722 O.3        1 UNL1     -0.5058
     27 O         -0.188447   -0.256138   2.539452 O.3        1 UNL1     -0.3648
     28 O         0.254225   -1.938908   -0.621958 O.3        1 UNL1     -0.3841
     29 O         -2.463468   0.363028   -0.21443 O.3        1 UNL1     -0.3863
     30 O         -2.453612   -3.311042   -0.249397 O.3        1 UNL1     -0.3829
     31 H         0.651438   -1.889691   1.762221 H        1 UNL1     0.0937
     32 H         0.0   0.0   0.0 H        1 UNL1     0.0671
     33 H         -1.890697   -1.160862   -1.41169 H        1 UNL1     0.0649
     34 H         -3.843134   -1.836222   0.076286 H        1 UNL1     0.0683
     35 H         -3.167235   -2.991721   2.131094 H        1 UNL1     0.1085
     36 H         -4.783054   -3.041324   3.425265 H        1 UNL1     0.0691
     37 H         -2.714243   0.574802   4.553913 H        1 UNL1     0.0691
     38 H         -3.227198   -1.244529   9.048302 H        1 UNL1     0.0385
     39 H         -4.779877   -0.848441   9.810433 H        1 UNL1     0.0385
     40 H         -3.554066   1.169316   8.918586 H        1 UNL1     0.0789
     41 H         -5.254411   1.816438   6.069878 H        1 UNL1     0.0623
     42 H         -7.386497   3.03687   5.905762 H        1 UNL1     0.0654
     43 H         -8.266513   2.073344   9.99802 H        1 UNL1     0.0654
     44 H         -6.186031   0.830574   10.179868 H        1 UNL1     0.0623
     45 H         -8.870024   4.283454   7.619403 H        1 UNL1     0.2921
     46 H         -5.323007   -4.068985   6.441554 H        1 UNL1     0.2922
     47 H         0.545651   0.308109   2.25912 H        1 UNL1     0.2126
     48 H         1.19744   -1.852759   -0.383932 H        1 UNL1     0.2101
     49 H         -2.038798   0.959009   -0.851813 H        1 UNL1     0.2100
     50 H         -2.706566   -3.302583   -1.195788 H        1 UNL1     0.2102
@<TRIPOS>BOND
     1     1     2    1
     2     1     6    1
     3     2     3    1
     4     3     4    1
     5     3    29    1
     6     3    33    1
     7     4     5    1
     8     5     6    1
     9     5     7    1
    10     5    35    1
    11     7     8    1
    12     8     9   ar
    13     8    13   ar
    14     9    10   ar
    15     9    36    1
    16    10    11   ar
    17    10    26    1
    18    11    12   ar
    19    11    14    1
    20    12    13   ar
    21    12    17    1
    22    13    37    1
    23    14    15    1
    24    14    25    2
    25    15    16    1
    26    15    38    1
    27    15    39    1
    28    16    17    1
    29    16    18    1
    30    16    40    1
    31    18    19   ar
    32    18    23   ar
    33    19    20   ar
    34    19    41    1
    35    20    21   ar
    36    20    42    1
    37    21    22   ar
    38    21    24    1
    39    22    23   ar
    40    22    43    1
    41    23    44    1
    42    24    45    1
    43    26    46    1
    44    27    47    1
    45    28    48    1
    46    29    49    1
    47    30    50    1
    48     1    31    1
    49     1    27    1
    50     2    32    1
    51     2    28    1
    52     4    34    1
    53     4    30    1
