@<TRIPOS>MOLECULE
*****
 50 53 0 0 0
SMALL
GASTEIGER

@<TRIPOS>ATOM
     1 C         -2.016069   -0.78174   -0.308471 C.3        1 UNL1     0.1889
     2 C         -0.898332   -0.198828   0.597519 C.3        1 UNL1     0.1342
     3 C         -0.517929   -1.082397   1.79546 C.3        1 UNL1     0.1174
     4 C         -1.713581   -1.841186   2.376645 C.3        1 UNL1     0.1456
     5 C         -2.571474   -2.513088   1.289019 C.3        1 UNL1     0.2326
     6 O         -3.020978   -1.536664   0.352317 O.3        1 UNL1     -0.3076
     7 O         -1.928438   -3.640295   0.666742 O.3        1 UNL1     -0.4605
     8 C         -0.574494   -3.504533   0.417878 C.ar        1 UNL1     0.1310
     9 C         0.179619   -2.348617   0.646942 C.ar        1 UNL1     0.0226
     10 C         1.553065   -2.315352   0.377792 C.ar        1 UNL1     0.1343
     11 C         2.210944   -3.445802   -0.105032 C.ar        1 UNL1     0.1007
     12 C         1.460961   -4.593251   -0.376451 C.ar        1 UNL1     0.1389
     13 C         0.079498   -4.625615   -0.10823 C.ar        1 UNL1     0.0229
     14 C         3.674685   -3.492169   -0.327443 C.2        1 UNL1     0.1740
     15 C         4.242357   -4.847094   -0.63318 C.3        1 UNL1     0.0520
     16 C         3.283971   -5.571077   -1.568756 C.3        1 UNL1     0.1322
     17 O         1.986026   -5.726135   -0.953642 O.3        1 UNL1     -0.4828
     18 C         3.249652   -4.991367   -2.984907 C.ar        1 UNL1     -0.0067
     19 C         2.546366   -5.676593   -3.99687 C.ar        1 UNL1     -0.0516
     20 C         2.534402   -5.199005   -5.312822 C.ar        1 UNL1     -0.0198
     21 C         3.226329   -4.043925   -5.6304 C.ar        1 UNL1     0.1169
     22 C         3.900458   -3.328871   -4.649031 C.ar        1 UNL1     -0.0198
     23 C         3.897283   -3.796234   -3.329327 C.ar        1 UNL1     -0.0516
     24 O         3.223285   -3.629856   -6.929992 O.3        1 UNL1     -0.5068
     25 O         4.409606   -2.51679   -0.19702 O.2        1 UNL1     -0.2917
     26 O         2.230735   -1.156624   0.622124 O.3        1 UNL1     -0.5058
     27 O         -1.520809   -1.457837   -1.453198 O.3        1 UNL1     -0.3648
     28 O         -1.348803   1.063803   1.122444 O.3        1 UNL1     -0.3841
     29 O         0.575178   -1.941493   1.464999 O.3        1 UNL1     -0.3863
     30 O         -2.542862   -0.921233   3.119389 O.3        1 UNL1     -0.3829
     31 H         -2.56538   0.073482   -0.717043 H        1 UNL1     0.0937
     32 H         0.0   0.0   0.0 H        1 UNL1     0.0671
     33 H         -0.14172   -0.424519   2.591314 H        1 UNL1     0.0649
     34 H         -1.365655   -2.60197   3.084145 H        1 UNL1     0.0683
     35 H         -3.457394   -2.866228   1.831529 H        1 UNL1     0.1085
     36 H         -0.262149   -1.454833   1.073688 H        1 UNL1     0.0691
     37 H         -0.482001   -5.530771   -0.329376 H        1 UNL1     0.0691
     38 H         4.3486   -5.383482   0.315781 H        1 UNL1     0.0385
     39 H         5.238778   -4.728058   -1.072219 H        1 UNL1     0.0385
     40 H         3.657596   -6.597555   -1.683933 H        1 UNL1     0.0789
     41 H         2.002991   -6.590472   -3.775021 H        1 UNL1     0.0623
     42 H         1.998252   -5.742823   -6.086655 H        1 UNL1     0.0654
     43 H         4.433055   -2.415017   -4.883813 H        1 UNL1     0.0654
     44 H         4.425538   -3.206719   -2.586183 H        1 UNL1     0.0623
     45 H         4.11466   -3.755259   -7.293918 H        1 UNL1     0.2921
     46 H         3.117799   -1.364789   0.955585 H        1 UNL1     0.2922
     47 H         -0.749363   -1.992375   -1.218681 H        1 UNL1     0.2126
     48 H         -1.08494   1.086054   2.062451 H        1 UNL1     0.2101
     49 H         1.415373   -1.493697   1.652998 H        1 UNL1     0.2100
     50 H         -3.320385   -0.701528   2.565403 H        1 UNL1     0.2102
@<TRIPOS>BOND
     1     1     2    1
     2     1     6    1
     3     2     3    1
     4     3     4    1
     5     3    29    1
     6     3    33    1
     7     4     5    1
     8     5     6    1
     9     5     7    1
    10     5    35    1
    11     7     8    1
    12     8     9   ar
    13     8    13   ar
    14     9    10   ar
    15     9    36    1
    16    10    11   ar
    17    10    26    1
    18    11    12   ar
    19    11    14    1
    20    12    13   ar
    21    12    17    1
    22    13    37    1
    23    14    15    1
    24    14    25    2
    25    15    16    1
    26    15    38    1
    27    15    39    1
    28    16    17    1
    29    16    18    1
    30    16    40    1
    31    18    19   ar
    32    18    23   ar
    33    19    20   ar
    34    19    41    1
    35    20    21   ar
    36    20    42    1
    37    21    22   ar
    38    21    24    1
    39    22    23   ar
    40    22    43    1
    41    23    44    1
    42    24    45    1
    43    26    46    1
    44    27    47    1
    45    28    48    1
    46    29    49    1
    47    30    50    1
    48     1    31    1
    49     1    27    1
    50     2    32    1
    51     2    28    1
    52     4    34    1
    53     4    30    1
