@<TRIPOS>MOLECULE
*****
 50 53 0 0 0
SMALL
GASTEIGER

@<TRIPOS>ATOM
     1 C         0.9158   0.002902   1.982954 C.3        1 UNL1     0.1889
     2 C         -0.323614   0.009684   1.048209 C.3        1 UNL1     0.1342
     3 C         -1.284035   1.189067   1.265262 C.3        1 UNL1     0.1174
     4 C         -1.377803   1.615866   2.732288 C.3        1 UNL1     0.1456
     5 C         0.003742   1.739893   3.400356 C.3        1 UNL1     0.2326
     6 O         0.707272   0.504247   3.295038 O.3        1 UNL1     -0.3076
     7 O         0.767042   2.867202   2.933593 O.3        1 UNL1     -0.4605
     8 C         1.61513   3.449738   3.858215 C.ar        1 UNL1     0.1310
     9 C         1.280142   3.764294   5.17963 C.ar        1 UNL1     0.0226
     10 C         2.217216   4.338759   6.046685 C.ar        1 UNL1     0.1343
     11 C         3.520325   4.590925   5.619884 C.ar        1 UNL1     0.1007
     12 C         3.854922   4.319044   4.290633 C.ar        1 UNL1     0.1389
     13 C         2.911757   3.743869   3.418254 C.ar        1 UNL1     0.0229
     14 C         4.573825   5.118631   6.517558 C.2        1 UNL1     0.1740
     15 C         5.965398   5.11788   5.956244 C.3        1 UNL1     0.0520
     16 C         5.895895   5.541166   4.495438 C.3        1 UNL1     0.1322
     17 O         5.075102   4.627153   3.735209 O.3        1 UNL1     -0.4828
     18 C         5.549721   7.018962   4.297933 C.ar        1 UNL1     -0.0067
     19 C         4.549831   7.378119   3.370873 C.ar        1 UNL1     -0.0516
     20 C         4.241776   8.722647   3.131476 C.ar        1 UNL1     -0.0198
     21 C         4.929984   9.715359   3.805804 C.ar        1 UNL1     0.1169
     22 C         5.896635   9.392299   4.749233 C.ar        1 UNL1     -0.0198
     23 C         6.192024   8.047401   5.002314 C.ar        1 UNL1     -0.0516
     24 O         4.628977   11.014379   3.518853 O.3        1 UNL1     -0.5068
     25 O         4.363137   5.464805   7.67698 O.2        1 UNL1     -0.2917
     26 O         1.826676   4.6225   7.322834 O.3        1 UNL1     -0.5058
     27 O         2.076195   0.561003   1.387308 O.3        1 UNL1     -0.3648
     28 O         -1.07192   -1.199322   1.274142 O.3        1 UNL1     -0.3841
     29 O         -0.960389   2.273698   0.39293 O.3        1 UNL1     -0.3863
     30 O         -2.159369   0.643297   3.459581 O.3        1 UNL1     -0.3829
     31 H         1.17674   -1.048032   2.148869 H        1 UNL1     0.0937
     32 H         0.0   0.0   -0.0 H        1 UNL1     0.0671
     33 H         -2.289335   0.862636   0.964372 H        1 UNL1     0.0649
     34 H         -1.904504   2.573418   2.810266 H        1 UNL1     0.0683
     35 H         -0.228313   1.885243   4.462854 H        1 UNL1     0.1085
     36 H         0.300559   3.541343   5.588079 H        1 UNL1     0.0691
     37 H         3.196857   3.542824   2.387821 H        1 UNL1     0.0691
     38 H         6.361604   4.10157   6.054535 H        1 UNL1     0.0385
     39 H         6.593238   5.788899   6.552338 H        1 UNL1     0.0385
     40 H         6.903416   5.420019   4.075028 H        1 UNL1     0.0789
     41 H         4.001646   6.617887   2.822065 H        1 UNL1     0.0623
     42 H         3.476956   8.98713   2.405452 H        1 UNL1     0.0654
     43 H         6.43111   10.161407   5.293952 H        1 UNL1     0.0654
     44 H         6.945469   7.831142   5.75358 H        1 UNL1     0.0623
     45 H         4.839065   11.178865   2.585299 H        1 UNL1     0.2921
     46 H         2.415585   4.172488   7.949002 H        1 UNL1     0.2922
     47 H         2.268807   0.117425   0.549454 H        1 UNL1     0.2126
     48 H         -0.495724   -1.939699   1.002899 H        1 UNL1     0.2101
     49 H         -1.175843   2.036134   -0.523005 H        1 UNL1     0.2100
     50 H         -3.077391   0.678979   3.119473 H        1 UNL1     0.2102
@<TRIPOS>BOND
     1     1     2    1
     2     1     6    1
     3     2     3    1
     4     3     4    1
     5     3    29    1
     6     3    33    1
     7     4     5    1
     8     5     6    1
     9     5     7    1
    10     5    35    1
    11     7     8    1
    12     8     9   ar
    13     8    13   ar
    14     9    10   ar
    15     9    36    1
    16    10    11   ar
    17    10    26    1
    18    11    12   ar
    19    11    14    1
    20    12    13   ar
    21    12    17    1
    22    13    37    1
    23    14    15    1
    24    14    25    2
    25    15    16    1
    26    15    38    1
    27    15    39    1
    28    16    17    1
    29    16    18    1
    30    16    40    1
    31    18    19   ar
    32    18    23   ar
    33    19    20   ar
    34    19    41    1
    35    20    21   ar
    36    20    42    1
    37    21    22   ar
    38    21    24    1
    39    22    23   ar
    40    22    43    1
    41    23    44    1
    42    24    45    1
    43    26    46    1
    44    27    47    1
    45    28    48    1
    46    29    49    1
    47    30    50    1
    48     1    31    1
    49     1    27    1
    50     2    32    1
    51     2    28    1
    52     4    34    1
    53     4    30    1
