@<TRIPOS>MOLECULE
*****
 50 53 0 0 0
SMALL
GASTEIGER

@<TRIPOS>ATOM
     1 C         -0.50557   -1.189221   1.760953 C.3        1 UNL1     0.1889
     2 C         -0.505078   -0.946924   0.22758 C.3        1 UNL1     0.1342
     3 C         -1.897807   -0.940507   -0.421055 C.3        1 UNL1     0.1174
     4 C         -2.864689   -1.926389   0.239469 C.3        1 UNL1     0.1456
     5 C         -2.836534   -1.840669   1.776422 C.3        1 UNL1     0.2326
     6 O         -1.510889   -2.063921   2.251492 O.3        1 UNL1     -0.3076
     7 O         -3.427633   -0.634922   2.294204 O.3        1 UNL1     -0.4605
     8 C         -4.043173   -0.743041   3.528282 C.ar        1 UNL1     0.1310
     9 C         -4.918032   -1.765642   3.910655 C.ar        1 UNL1     0.0226
     10 C         -5.478761   -1.796565   5.193047 C.ar        1 UNL1     0.1343
     11 C         -5.159244   -0.817635   6.132965 C.ar        1 UNL1     0.1007
     12 C         -4.319011   0.231094   5.749615 C.ar        1 UNL1     0.1389
     13 C         -3.757413   0.263402   4.459268 C.ar        1 UNL1     0.0229
     14 C         -5.656635   -0.847706   7.527903 C.2        1 UNL1     0.1740
     15 C         -5.038214   0.152966   8.45944 C.3        1 UNL1     0.0520
     16 C         -4.876291   1.470078   7.713146 C.3        1 UNL1     0.1322
     17 O         -4.023988   1.303847   6.558583 O.3        1 UNL1     -0.4828
     18 C         -6.200176   2.182928   7.426969 C.ar        1 UNL1     -0.0067
     19 C         -6.461342   2.663074   6.127174 C.ar        1 UNL1     -0.0516
     20 C         -7.641212   3.360922   5.842787 C.ar        1 UNL1     -0.0198
     21 C         -8.562391   3.59099   6.848932 C.ar        1 UNL1     0.1169
     22 C         -8.348935   3.10157   8.131017 C.ar        1 UNL1     -0.0198
     23 C         -7.177674   2.387687   8.41133 C.ar        1 UNL1     -0.0516
     24 O         -9.682284   4.307123   6.543327 O.3        1 UNL1     -0.5068
     25 O         -6.46167   -1.678268   7.940902 O.2        1 UNL1     -0.2917
     26 O         -6.325552   -2.820612   5.502655 O.3        1 UNL1     -0.5058
     27 O         -0.434164   0.00586   2.522182 O.3        1 UNL1     -0.3648
     28 O         0.254839   -1.996508   -0.3998 O.3        1 UNL1     -0.3841
     29 O         -2.420649   0.387843   -0.486294 O.3        1 UNL1     -0.3863
     30 O         -2.515023   -3.270392   -0.156865 O.3        1 UNL1     -0.3829
     31 H         0.427034   -1.714145   1.995013 H        1 UNL1     0.0937
     32 H         0.0   0.0   0.0 H        1 UNL1     0.0671
     33 H         -1.782499   -1.260328   -1.466109 H        1 UNL1     0.0649
     34 H         -3.885301   -1.743151   -0.114332 H        1 UNL1     0.0683
     35 H         -3.440001   -2.697893   2.100262 H        1 UNL1     0.1085
     36 H         -5.162115   -2.585981   3.244631 H        1 UNL1     0.0691
     37 H         -3.107117   1.09133   4.185144 H        1 UNL1     0.0691
     38 H         -4.067504   -0.244101   8.775014 H        1 UNL1     0.0385
     39 H         -5.67098   0.255412   9.347635 H        1 UNL1     0.0385
     40 H         -4.317298   2.148639   8.371631 H        1 UNL1     0.0789
     41 H         -5.749916   2.503383   5.322175 H        1 UNL1     0.0623
     42 H         -7.825606   3.736482   4.839311 H        1 UNL1     0.0654
     43 H         -9.070667   3.263012   8.922818 H        1 UNL1     0.0654
     44 H         -7.048489   2.010708   9.421301 H        1 UNL1     0.0623
     45 H         -9.409553   5.187823   6.238856 H        1 UNL1     0.2921
     46 H         -5.995626   -3.287442   6.28664 H        1 UNL1     0.2922
     47 H         0.344577   0.519692   2.266452 H        1 UNL1     0.2126
     48 H         1.163898   -1.931742   -0.048871 H        1 UNL1     0.2101
     49 H         -1.915283   0.910198   -1.129368 H        1 UNL1     0.2100
     50 H         -2.672011   -3.351055   -1.120483 H        1 UNL1     0.2102
@<TRIPOS>BOND
     1     1     2    1
     2     1     6    1
     3     2     3    1
     4     3     4    1
     5     3    29    1
     6     3    33    1
     7     4     5    1
     8     5     6    1
     9     5     7    1
    10     5    35    1
    11     7     8    1
    12     8     9   ar
    13     8    13   ar
    14     9    10   ar
    15     9    36    1
    16    10    11   ar
    17    10    26    1
    18    11    12   ar
    19    11    14    1
    20    12    13   ar
    21    12    17    1
    22    13    37    1
    23    14    15    1
    24    14    25    2
    25    15    16    1
    26    15    38    1
    27    15    39    1
    28    16    17    1
    29    16    18    1
    30    16    40    1
    31    18    19   ar
    32    18    23   ar
    33    19    20   ar
    34    19    41    1
    35    20    21   ar
    36    20    42    1
    37    21    22   ar
    38    21    24    1
    39    22    23   ar
    40    22    43    1
    41    23    44    1
    42    24    45    1
    43    26    46    1
    44    27    47    1
    45    28    48    1
    46    29    49    1
    47    30    50    1
    48     1    31    1
    49     1    27    1
    50     2    32    1
    51     2    28    1
    52     4    34    1
    53     4    30    1
