@<TRIPOS>MOLECULE
*****
 50 53 0 0 0
SMALL
GASTEIGER

@<TRIPOS>ATOM
     1 C         -0.411147   -1.363683   1.655938 C.3        1 UNL1     0.1889
     2 C         -0.50142   -0.962747   0.158927 C.3        1 UNL1     0.1342
     3 C         -1.930985   -0.881147   -0.397984 C.3        1 UNL1     0.1174
     4 C         -2.867338   -1.925302   0.215285 C.3        1 UNL1     0.1456
     5 C         -2.74437   -2.000544   1.748119 C.3        1 UNL1     0.2326
     6 O         -1.394926   -2.279323   2.114389 O.3        1 UNL1     -0.3076
     7 O         -3.288423   -0.852207   2.423878 O.3        1 UNL1     -0.4605
     8 C         -3.828693   -1.085141   3.675828 C.ar        1 UNL1     0.1310
     9 C         -4.690623   -2.137295   4.003471 C.ar        1 UNL1     0.0226
     10 C         -5.172324   -2.298793   5.307995 C.ar        1 UNL1     0.1343
     11 C         -4.784434   -1.425008   6.322826 C.ar        1 UNL1     0.1007
     12 C         -3.956814   -0.346579   5.99907 C.ar        1 UNL1     0.1389
     13 C         -3.474715   -0.182878   4.686738 C.ar        1 UNL1     0.0229
     14 C         -5.196037   -1.597743   7.735235 C.2        1 UNL1     0.1740
     15 C         -4.510076   -0.70308   8.725481 C.3        1 UNL1     0.0520
     16 C         -4.378436   0.683804   8.11133 C.3        1 UNL1     0.1322
     17 O         -3.600255   0.634311   6.895166 O.3        1 UNL1     -0.4828
     18 C         -5.708789   1.429785   7.983274 C.ar        1 UNL1     -0.0067
     19 C         -5.991374   2.143767   6.800655 C.ar        1 UNL1     -0.0516
     20 C         -7.177655   2.875537   6.669456 C.ar        1 UNL1     -0.0198
     21 C         -8.084004   2.907194   7.714136 C.ar        1 UNL1     0.1169
     22 C         -7.849365   2.187142   8.878313 C.ar        1 UNL1     -0.0198
     23 C         -6.671705   1.440336   9.002625 C.ar        1 UNL1     -0.0516
     24 O         -9.210698   3.661263   7.564662 O.3        1 UNL1     -0.5068
     25 O         -5.984133   -2.462482   8.108886 O.2        1 UNL1     -0.2917
     26 O         -6.0107   -3.344947   5.561519 O.3        1 UNL1     -0.5058
     27 O         -0.279239   -0.254942   2.531198 O.3        1 UNL1     -0.3648
     28 O         0.206282   -1.945257   -0.619879 O.3        1 UNL1     -0.3841
     29 O         -2.441062   0.449576   -0.292475 O.3        1 UNL1     -0.3863
     30 O         -2.558472   -3.222499   -0.339306 O.3        1 UNL1     -0.3829
     31 H         0.527726   -1.915209   1.776009 H        1 UNL1     0.0937
     32 H         0.0   0.0   0.0 H        1 UNL1     0.0671
     33 H         -1.883504   -1.090818   -1.475715 H        1 UNL1     0.0649
     34 H         -3.905408   -1.700624   -0.053661 H        1 UNL1     0.0683
     35 H         -3.337048   -2.883591   2.018007 H        1 UNL1     0.1085
     36 H         -4.984621   -2.882341   3.272312 H        1 UNL1     0.0691
     37 H         -2.83261   0.665592   4.46026 H        1 UNL1     0.0691
     38 H         -3.526679   -1.136159   8.937378 H        1 UNL1     0.0385
     39 H         -5.086166   -0.690425   9.657006 H        1 UNL1     0.0385
     40 H         -3.772278   1.286926   8.800777 H        1 UNL1     0.0789
     41 H         -5.291886   2.142236   5.969773 H        1 UNL1     0.0623
     42 H         -7.378603   3.431642   5.757108 H        1 UNL1     0.0654
     43 H         -8.559366   2.19281   9.696712 H        1 UNL1     0.0654
     44 H         -6.525855   0.88129   9.921885 H        1 UNL1     0.0623
     45 H         -8.945438   4.585066   7.427031 H        1 UNL1     0.2921
     46 H         -5.63907   -3.892799   6.270858 H        1 UNL1     0.2922
     47 H         0.488465   0.278536   2.282419 H        1 UNL1     0.2126
     48 H         1.135776   -1.922384   -0.321132 H        1 UNL1     0.2101
     49 H         -2.032862   1.01401   -0.968183 H        1 UNL1     0.2100
     50 H         -2.774955   -3.201342   -1.294502 H        1 UNL1     0.2102
@<TRIPOS>BOND
     1     1     2    1
     2     1     6    1
     3     2     3    1
     4     3     4    1
     5     3    29    1
     6     3    33    1
     7     4     5    1
     8     5     6    1
     9     5     7    1
    10     5    35    1
    11     7     8    1
    12     8     9   ar
    13     8    13   ar
    14     9    10   ar
    15     9    36    1
    16    10    11   ar
    17    10    26    1
    18    11    12   ar
    19    11    14    1
    20    12    13   ar
    21    12    17    1
    22    13    37    1
    23    14    15    1
    24    14    25    2
    25    15    16    1
    26    15    38    1
    27    15    39    1
    28    16    17    1
    29    16    18    1
    30    16    40    1
    31    18    19   ar
    32    18    23   ar
    33    19    20   ar
    34    19    41    1
    35    20    21   ar
    36    20    42    1
    37    21    22   ar
    38    21    24    1
    39    22    23   ar
    40    22    43    1
    41    23    44    1
    42    24    45    1
    43    26    46    1
    44    27    47    1
    45    28    48    1
    46    29    49    1
    47    30    50    1
    48     1    31    1
    49     1    27    1
    50     2    32    1
    51     2    28    1
    52     4    34    1
    53     4    30    1
