@<TRIPOS>MOLECULE
*****
 50 53 0 0 0
SMALL
GASTEIGER

@<TRIPOS>ATOM
     1 C         -0.330351   -1.327211   1.702992 C.3        1 UNL1     0.1889
     2 C         -0.461665   -0.975579   0.196655 C.3        1 UNL1     0.1342
     3 C         -1.902716   -0.964517   -0.335994 C.3        1 UNL1     0.1174
     4 C         -2.787985   -2.023901   0.325157 C.3        1 UNL1     0.1456
     5 C         -2.635756   -2.047905   1.857024 C.3        1 UNL1     0.2326
     6 O         -1.270564   -2.264705   2.20648 O.3        1 UNL1     -0.3076
     7 O         -3.211267   -0.900758   2.5083 O.3        1 UNL1     -0.4605
     8 C         -3.720141   -1.115531   3.776546 C.ar        1 UNL1     0.1310
     9 C         -4.535387   -2.188873   4.151526 C.ar        1 UNL1     0.0226
     10 C         -4.987546   -2.328487   5.469086 C.ar        1 UNL1     0.1343
     11 C         -4.615492   -1.410162   6.44995 C.ar        1 UNL1     0.1007
     12 C         -3.835459   -0.311746   6.078713 C.ar        1 UNL1     0.1389
     13 C         -3.383125   -0.170157   4.753279 C.ar        1 UNL1     0.0229
     14 C         -4.995287   -1.555069   7.874349 C.2        1 UNL1     0.1740
     15 C         -4.326655   -0.605428   8.824435 C.3        1 UNL1     0.0520
     16 C         -4.258871   0.766035   8.166825 C.3        1 UNL1     0.1322
     17 O         -3.500887   0.708754   6.93831 O.3        1 UNL1     -0.4828
     18 C         -5.618772   1.457187   8.041523 C.ar        1 UNL1     -0.0067
     19 C         -5.998993   2.018601   6.805214 C.ar        1 UNL1     -0.0516
     20 C         -7.214915   2.698974   6.66887 C.ar        1 UNL1     -0.0198
     21 C         -8.05415   2.830834   7.760715 C.ar        1 UNL1     0.1169
     22 C         -7.722714   2.259978   8.982644 C.ar        1 UNL1     -0.0198
     23 C         -6.515324   1.563643   9.11449 C.ar        1 UNL1     -0.0516
     24 O         -9.212531   3.532708   7.599698 O.3        1 UNL1     -0.5068
     25 O         -5.743108   -2.437035   8.288334 O.2        1 UNL1     -0.2917
     26 O         -5.780791   -3.397213   5.769372 O.3        1 UNL1     -0.5058
     27 O         -0.225535   -0.188242   2.542367 O.3        1 UNL1     -0.3648
     28 O         0.269271   -1.954093   -0.565545 O.3        1 UNL1     -0.3841
     29 O         -2.46107   0.34876   -0.260661 O.3        1 UNL1     -0.3863
     30 O         -2.439707   -3.324863   -0.196271 O.3        1 UNL1     -0.3829
     31 H         0.63073   -1.83929   1.822064 H        1 UNL1     0.0937
     32 H         0.0   0.0   0.0 H        1 UNL1     0.0671
     33 H         -1.865951   -1.204893   -1.407716 H        1 UNL1     0.0649
     34 H         -3.838336   -1.846523   0.068835 H        1 UNL1     0.0683
     35 H         -3.189708   -2.943925   2.163887 H        1 UNL1     0.1085
     36 H         -4.813554   -2.96642   3.448557 H        1 UNL1     0.0691
     37 H         -2.777955   0.694559   4.489596 H        1 UNL1     0.0691
     38 H         -3.32387   -0.994537   9.030692 H        1 UNL1     0.0385
     39 H         -4.886329   -0.586028   9.7658 H        1 UNL1     0.0385
     40 H         -3.664136   1.412294   8.826491 H        1 UNL1     0.0789
     41 H         -5.353618   1.936651   5.935487 H        1 UNL1     0.0623
     42 H         -7.491405   3.137778   5.713351 H        1 UNL1     0.0654
     43 H         -8.3795   2.344286   9.840219 H        1 UNL1     0.0654
     44 H         -6.293257   1.121323   10.080867 H        1 UNL1     0.0623
     45 H         -8.987435   4.440026   7.33736 H        1 UNL1     0.2921
     46 H         -5.375582   -3.909374   6.486943 H        1 UNL1     0.2922
     47 H         0.51704   0.365722   2.26386 H        1 UNL1     0.2126
     48 H         1.202134   -1.887856   -0.284276 H        1 UNL1     0.2101
     49 H         -2.022878   0.930931   -0.901643 H        1 UNL1     0.2100
     50 H         -2.673325   -3.340842   -1.147523 H        1 UNL1     0.2102
@<TRIPOS>BOND
     1     1     2    1
     2     1     6    1
     3     2     3    1
     4     3     4    1
     5     3    29    1
     6     3    33    1
     7     4     5    1
     8     5     6    1
     9     5     7    1
    10     5    35    1
    11     7     8    1
    12     8     9   ar
    13     8    13   ar
    14     9    10   ar
    15     9    36    1
    16    10    11   ar
    17    10    26    1
    18    11    12   ar
    19    11    14    1
    20    12    13   ar
    21    12    17    1
    22    13    37    1
    23    14    15    1
    24    14    25    2
    25    15    16    1
    26    15    38    1
    27    15    39    1
    28    16    17    1
    29    16    18    1
    30    16    40    1
    31    18    19   ar
    32    18    23   ar
    33    19    20   ar
    34    19    41    1
    35    20    21   ar
    36    20    42    1
    37    21    22   ar
    38    21    24    1
    39    22    23   ar
    40    22    43    1
    41    23    44    1
    42    24    45    1
    43    26    46    1
    44    27    47    1
    45    28    48    1
    46    29    49    1
    47    30    50    1
    48     1    31    1
    49     1    27    1
    50     2    32    1
    51     2    28    1
    52     4    34    1
    53     4    30    1
