@<TRIPOS>MOLECULE
*****
 50 53 0 0 0
SMALL
GASTEIGER

@<TRIPOS>ATOM
     1 C         0.127164   -1.776313   1.264653 C.3        1 UNL1     0.1889
     2 C         -0.377901   -1.029928   0.000628 C.3        1 UNL1     0.1342
     3 C         -1.905548   -1.003271   -0.160771 C.3        1 UNL1     0.1174
     4 C         -2.577993   -2.282773   0.343025 C.3        1 UNL1     0.1456
     5 C         -2.053493   -2.721378   1.722477 C.3        1 UNL1     0.2326
     6 O         -0.639917   -2.900217   1.670635 O.3        1 UNL1     -0.3076
     7 O         -2.476054   -1.861394   2.796344 O.3        1 UNL1     -0.4605
     8 C         -2.664264   -2.471622   4.023425 C.ar        1 UNL1     0.1310
     9 C         -3.345726   -3.67521   4.233866 C.ar        1 UNL1     0.0226
     10 C         -3.468598   -4.222642   5.51649 C.ar        1 UNL1     0.1343
     11 C         -2.89189   -3.591264   6.617676 C.ar        1 UNL1     0.1007
     12 C         -2.244223   -2.367926   6.425956 C.ar        1 UNL1     0.1389
     13 C         -2.123093   -1.816357   5.136565 C.ar        1 UNL1     0.0229
     14 C         -2.918967   -4.167652   7.981933 C.2        1 UNL1     0.1740
     15 C         -2.062192   -3.47131   8.998099 C.3        1 UNL1     0.0520
     16 C         -2.179655   -1.969224   8.779244 C.3        1 UNL1     0.1322
     17 O         -1.734763   -1.607902   7.453127 O.3        1 UNL1     -0.4828
     18 C         -3.543568   -1.39451   9.169332 C.ar        1 UNL1     -0.0067
     19 C         -4.657298   -1.628081   8.336707 C.ar        1 UNL1     -0.0516
     20 C         -5.908395   -1.077471   8.639274 C.ar        1 UNL1     -0.0198
     21 C         -6.05672   -0.287261   9.76506 C.ar        1 UNL1     0.1169
     22 C         -4.986572   -0.066647   10.622354 C.ar        1 UNL1     -0.0198
     23 C         -3.739753   -0.632317   10.329922 C.ar        1 UNL1     -0.0516
     24 O         -7.281064   0.263019   10.007079 O.3        1 UNL1     -0.5068
     25 O         -3.529416   -5.19361   8.270457 O.2        1 UNL1     -0.2917
     26 O         -4.146558   -5.398666   5.654044 O.3        1 UNL1     -0.5058
     27 O         0.410304   -0.91396   2.35505 O.3        1 UNL1     -0.3648
     28 O         0.164362   -1.683304   -1.162023 O.3        1 UNL1     -0.3841
     29 O         -2.456624   0.178595   0.423729 O.3        1 UNL1     -0.3863
     30 O         -2.340394   -3.347162   -0.603713 O.3        1 UNL1     -0.3829
     31 H         1.09891   -2.210013   1.004473 H        1 UNL1     0.0937
     32 H         0.0   0.0   0.0 H        1 UNL1     0.0671
     33 H         -2.128079   -0.92885   -1.234392 H        1 UNL1     0.0649
     34 H         -3.662717   -2.138592   0.397663 H        1 UNL1     0.0683
     35 H         -2.495472   -3.714756   1.869906 H        1 UNL1     0.1085
     36 H         -3.767897   -4.242726   3.411785 H        1 UNL1     0.0691
     37 H         -1.615071   -0.862197   5.014146 H        1 UNL1     0.0691
     38 H         -1.031716   -3.812333   8.851986 H        1 UNL1     0.0385
     39 H         -2.382087   -3.769685   10.002299 H        1 UNL1     0.0385
     40 H         -1.457805   -1.486659   9.451987 H        1 UNL1     0.0789
     41 H         -4.564705   -2.237309   7.442326 H        1 UNL1     0.0623
     42 H         -6.756765   -1.255088   7.982971 H        1 UNL1     0.0654
     43 H         -5.095289   0.53819   11.51469 H        1 UNL1     0.0654
     44 H         -2.928261   -0.447905   11.027287 H        1 UNL1     0.0623
     45 H         -7.227051   1.217637   9.838247 H        1 UNL1     0.2921
     46 H         -3.651517   -5.990588   6.242242 H        1 UNL1     0.2922
     47 H         1.040739   -0.230974   2.08683 H        1 UNL1     0.2126
     48 H         -0.438594   -2.421499   -1.374733 H        1 UNL1     0.2101
     49 H         -2.793851   -0.018927   1.312018 H        1 UNL1     0.2100
     50 H         -2.840337   -3.141231   -1.420634 H        1 UNL1     0.2102
@<TRIPOS>BOND
     1     1     2    1
     2     1     6    1
     3     2     3    1
     4     3     4    1
     5     3    29    1
     6     3    33    1
     7     4     5    1
     8     5     6    1
     9     5     7    1
    10     5    35    1
    11     7     8    1
    12     8     9   ar
    13     8    13   ar
    14     9    10   ar
    15     9    36    1
    16    10    11   ar
    17    10    26    1
    18    11    12   ar
    19    11    14    1
    20    12    13   ar
    21    12    17    1
    22    13    37    1
    23    14    15    1
    24    14    25    2
    25    15    16    1
    26    15    38    1
    27    15    39    1
    28    16    17    1
    29    16    18    1
    30    16    40    1
    31    18    19   ar
    32    18    23   ar
    33    19    20   ar
    34    19    41    1
    35    20    21   ar
    36    20    42    1
    37    21    22   ar
    38    21    24    1
    39    22    23   ar
    40    22    43    1
    41    23    44    1
    42    24    45    1
    43    26    46    1
    44    27    47    1
    45    28    48    1
    46    29    49    1
    47    30    50    1
    48     1    31    1
    49     1    27    1
    50     2    32    1
    51     2    28    1
    52     4    34    1
    53     4    30    1
