@<TRIPOS>MOLECULE
*****
 50 53 0 0 0
SMALL
GASTEIGER

@<TRIPOS>ATOM
     1 C         0.077177   -1.599709   -1.485187 C.3        1 UNL1     0.1889
     2 C         0.25867   -1.065426   -0.03897 C.3        1 UNL1     0.1342
     3 C         1.666223   -1.261035   0.54498 C.3        1 UNL1     0.1174
     4 C         2.328486   -2.558754   0.075458 C.3        1 UNL1     0.1456
     5 C         2.192585   -2.774982   -1.442811 C.3        1 UNL1     0.2326
     6 O         0.815877   -2.767127   -1.813595 O.3        1 UNL1     -0.3076
     7 O         2.994329   -1.870916   -2.224598 O.3        1 UNL1     -0.4605
     8 C         4.332881   -1.797816   -1.883333 C.ar        1 UNL1     0.1310
     9 C         5.387313   -1.589873   -2.779008 C.ar        1 UNL1     0.0226
     10 C         6.711955   -1.513904   -2.332405 C.ar        1 UNL1     0.1343
     11 C         7.012275   -1.620372   -0.975087 C.ar        1 UNL1     0.1007
     12 C         5.972049   -1.869149   -0.075742 C.ar        1 UNL1     0.1389
     13 C         4.640493   -1.948133   -0.525357 C.ar        1 UNL1     0.0229
     14 C         8.384334   -1.464025   -0.43921 C.2        1 UNL1     0.1740
     15 C         8.492635   -1.385605   1.055337 C.3        1 UNL1     0.0520
     16 C         7.523996   -2.391405   1.662017 C.3        1 UNL1     0.1322
     17 O         6.165778   -2.09797   1.266784 O.3        1 UNL1     -0.4828
     18 C         7.942686   -3.849599   1.459302 C.ar        1 UNL1     -0.0067
     19 C         8.962869   -4.395619   2.265094 C.ar        1 UNL1     -0.0516
     20 C         9.402472   -5.711011   2.074162 C.ar        1 UNL1     -0.0198
     21 C         8.836289   -6.486465   1.078202 C.ar        1 UNL1     0.1169
     22 C         7.806704   -5.987935   0.290635 C.ar        1 UNL1     -0.0198
     23 C         7.354197   -4.67869   0.493546 C.ar        1 UNL1     -0.0516
     24 O         9.316232   -7.750255   0.896846 O.3        1 UNL1     -0.5068
     25 O         9.37602   -1.324249   -1.150201 O.2        1 UNL1     -0.2917
     26 O         7.694223   -1.310708   -3.257309 O.3        1 UNL1     -0.5058
     27 O         0.213069   -0.596938   -2.479556 O.3        1 UNL1     -0.3648
     28 O         -0.66277   -1.759237   0.822587 O.3        1 UNL1     -0.3841
     29 O         2.477735   -0.108699   0.308967 O.3        1 UNL1     -0.3863
     30 O         1.719977   -3.675609   0.759594 O.3        1 UNL1     -0.3829
     31 H         -0.965678   -1.924212   -1.570223 H        1 UNL1     0.0937
     32 H         0.0   0.0   0.0 H        1 UNL1     0.0671
     33 H         1.569328   -1.330876   1.637433 H        1 UNL1     0.0649
     34 H         3.389969   -2.556369   0.346841 H        1 UNL1     0.0683
     35 H         2.558929   -3.797489   -1.598215 H        1 UNL1     0.1085
     36 H         5.214159   -1.443441   -3.839525 H        1 UNL1     0.0691
     37 H         3.848917   -2.143673   0.194826 H        1 UNL1     0.0691
     38 H         8.237608   -0.36282   1.352655 H        1 UNL1     0.0385
     39 H         9.529475   -1.579216   1.350729 H        1 UNL1     0.0385
     40 H         7.533498   -2.234794   2.749171 H        1 UNL1     0.0789
     41 H         9.429633   -3.804393   3.047548 H        1 UNL1     0.0623
     42 H         10.19812   -6.116689   2.694147 H        1 UNL1     0.0654
     43 H         7.34595   -6.59158   -0.48217 H        1 UNL1     0.0654
     44 H         6.540882   -4.325335   -0.132954 H        1 UNL1     0.0623
     45 H         9.211403   -7.986772   -0.038989 H        1 UNL1     0.2921
     46 H         8.267048   -0.583597   -2.966459 H        1 UNL1     0.2922
     47 H         -0.580347   -0.044193   -2.508269 H        1 UNL1     0.2126
     48 H         -0.12546   -2.330397   1.404658 H        1 UNL1     0.2101
     49 H         3.414154   -0.334881   0.426247 H        1 UNL1     0.2100
     50 H         1.191161   -3.321231   1.50423 H        1 UNL1     0.2102
@<TRIPOS>BOND
     1     1     2    1
     2     1     6    1
     3     2     3    1
     4     3     4    1
     5     3    29    1
     6     3    33    1
     7     4     5    1
     8     5     6    1
     9     5     7    1
    10     5    35    1
    11     7     8    1
    12     8     9   ar
    13     8    13   ar
    14     9    10   ar
    15     9    36    1
    16    10    11   ar
    17    10    26    1
    18    11    12   ar
    19    11    14    1
    20    12    13   ar
    21    12    17    1
    22    13    37    1
    23    14    15    1
    24    14    25    2
    25    15    16    1
    26    15    38    1
    27    15    39    1
    28    16    17    1
    29    16    18    1
    30    16    40    1
    31    18    19   ar
    32    18    23   ar
    33    19    20   ar
    34    19    41    1
    35    20    21   ar
    36    20    42    1
    37    21    22   ar
    38    21    24    1
    39    22    23   ar
    40    22    43    1
    41    23    44    1
    42    24    45    1
    43    26    46    1
    44    27    47    1
    45    28    48    1
    46    29    49    1
    47    30    50    1
    48     1    31    1
    49     1    27    1
    50     2    32    1
    51     2    28    1
    52     4    34    1
    53     4    30    1
