@<TRIPOS>MOLECULE
*****
 50 53 0 0 0
SMALL
GASTEIGER

@<TRIPOS>ATOM
     1 C         0.066778   -1.662149   1.415488 C.3        1 UNL1     0.1889
     2 C         -0.638995   -0.434917   0.778521 C.3        1 UNL1     0.1342
     3 C         -1.034701   0.665731   1.774742 C.3        1 UNL1     0.1174
     4 C         -1.457053   0.109475   3.136842 C.3        1 UNL1     0.1456
     5 C         -0.483509   -0.959759   3.665343 C.3        1 UNL1     0.2326
     6 O         -0.366161   -2.020264   2.719601 O.3        1 UNL1     -0.3076
     7 O         0.787801   -0.424593   4.076059 O.3        1 UNL1     -0.4605
     8 C         1.748159   -0.316154   3.086371 C.ar        1 UNL1     0.1310
     9 C         2.390363   0.867332   2.706587 C.ar        1 UNL1     0.0226
     10 C         3.364775   0.871562   1.701398 C.ar        1 UNL1     0.1343
     11 C         3.738033   -0.312778   1.067475 C.ar        1 UNL1     0.1007
     12 C         3.074632   -1.494189   1.409456 C.ar        1 UNL1     0.1389
     13 C         2.093025   -1.497735   2.41835 C.ar        1 UNL1     0.0229
     14 C         4.820259   -0.379535   0.058276 C.2        1 UNL1     0.1740
     15 C         5.23959   -1.760107   -0.35371 C.3        1 UNL1     0.0520
     16 C         3.992557   -2.623868   -0.483251 C.3        1 UNL1     0.1322
     17 O         3.285904   -2.696162   0.774718 O.3        1 UNL1     -0.4828
     18 C         3.114851   -2.262689   -1.684044 C.ar        1 UNL1     -0.0067
     19 C         3.405641   -1.102175   -2.430277 C.ar        1 UNL1     -0.0516
     20 C         2.595169   -0.717405   -3.505009 C.ar        1 UNL1     -0.0198
     21 C         1.489308   -1.478929   -3.838146 C.ar        1 UNL1     0.1169
     22 C         1.196227   -2.64516   -3.143273 C.ar        1 UNL1     -0.0198
     23 C         2.017107   -3.040146   -2.080165 C.ar        1 UNL1     -0.0516
     24 O         0.701712   -1.052456   -4.866841 O.3        1 UNL1     -0.5068
     25 O         5.407845   0.610541   -0.369483 O.2        1 UNL1     -0.2917
     26 O         3.952478   2.059465   1.377244 O.3        1 UNL1     -0.5058
     27 O         1.481881   -1.607905   1.329888 O.3        1 UNL1     -0.3648
     28 O         -1.84611   -0.885519   0.136232 O.3        1 UNL1     -0.3841
     29 O         -0.006143   1.652741   1.874794 O.3        1 UNL1     -0.3863
     30 O         -2.772124   -0.476308   3.022229 O.3        1 UNL1     -0.3829
     31 H         -0.207053   -2.531076   0.807161 H        1 UNL1     0.0937
     32 H         0.0   0.0   0.0 H        1 UNL1     0.0671
     33 H         -1.906287   1.193333   1.362803 H        1 UNL1     0.0649
     34 H         -1.531186   0.923396   3.866526 H        1 UNL1     0.0683
     35 H         -0.994732   -1.371553   4.544523 H        1 UNL1     0.1085
     36 H         2.184969   1.811112   3.199753 H        1 UNL1     0.0691
     37 H         1.590504   -2.430479   2.665236 H        1 UNL1     0.0691
     38 H         5.909768   -2.147688   0.420997 H        1 UNL1     0.0385
     39 H         5.800734   -1.699647   -1.292454 H        1 UNL1     0.0385
     40 H         4.329321   -3.652844   -0.668503 H        1 UNL1     0.0789
     41 H         4.262684   -0.4825   -2.183032 H        1 UNL1     0.0623
     42 H         2.82304   0.18606   -4.06522 H        1 UNL1     0.0654
     43 H         0.341326   -3.257045   -3.405289 H        1 UNL1     0.0654
     44 H         1.764524   -3.962498   -1.566051 H        1 UNL1     0.0623
     45 H         0.418448   -0.142848   -4.679512 H        1 UNL1     0.2921
     46 H         4.916874   1.952975   1.373767 H        1 UNL1     0.2922
     47 H         1.774453   -0.69566   1.195462 H        1 UNL1     0.2126
     48 H         -1.720785   -0.748274   -0.822512 H        1 UNL1     0.2101
     49 H         0.864256   1.223556   1.874321 H        1 UNL1     0.2100
     50 H         -3.114855   -0.627334   3.927458 H        1 UNL1     0.2102
@<TRIPOS>BOND
     1     1     2    1
     2     1     6    1
     3     2     3    1
     4     3     4    1
     5     3    29    1
     6     3    33    1
     7     4     5    1
     8     5     6    1
     9     5     7    1
    10     5    35    1
    11     7     8    1
    12     8     9   ar
    13     8    13   ar
    14     9    10   ar
    15     9    36    1
    16    10    11   ar
    17    10    26    1
    18    11    12   ar
    19    11    14    1
    20    12    13   ar
    21    12    17    1
    22    13    37    1
    23    14    15    1
    24    14    25    2
    25    15    16    1
    26    15    38    1
    27    15    39    1
    28    16    17    1
    29    16    18    1
    30    16    40    1
    31    18    19   ar
    32    18    23   ar
    33    19    20   ar
    34    19    41    1
    35    20    21   ar
    36    20    42    1
    37    21    22   ar
    38    21    24    1
    39    22    23   ar
    40    22    43    1
    41    23    44    1
    42    24    45    1
    43    26    46    1
    44    27    47    1
    45    28    48    1
    46    29    49    1
    47    30    50    1
    48     1    31    1
    49     1    27    1
    50     2    32    1
    51     2    28    1
    52     4    34    1
    53     4    30    1
