@<TRIPOS>MOLECULE
*****
 50 53 0 0 0
SMALL
GASTEIGER

@<TRIPOS>ATOM
     1 C         1.622356   -1.460781   -0.069889 C.3        1 UNL1     0.1889
     2 C         0.24352   -0.923781   -0.53934 C.3        1 UNL1     0.1342
     3 C         -0.918448   -1.916637   -0.382711 C.3        1 UNL1     0.1174
     4 C         -0.494816   -3.368283   -0.620156 C.3        1 UNL1     0.1456
     5 C         0.806435   -3.731671   0.118124 C.3        1 UNL1     0.2326
     6 O         1.852454   -2.846724   -0.276315 O.3        1 UNL1     -0.3076
     7 O         0.649493   -3.821443   1.545931 O.3        1 UNL1     -0.4605
     8 C         1.290514   -2.846335   2.288753 C.ar        1 UNL1     0.1310
     9 C         0.812826   -2.290604   3.480507 C.ar        1 UNL1     0.0226
     10 C         1.545883   -1.317539   4.170198 C.ar        1 UNL1     0.1343
     11 C         2.786826   -0.893438   3.69687 C.ar        1 UNL1     0.1007
     12 C         3.255322   -1.411129   2.486378 C.ar        1 UNL1     0.1389
     13 C         2.516821   -2.387595   1.791713 C.ar        1 UNL1     0.0229
     14 C         3.641548   0.069854   4.428767 C.2        1 UNL1     0.1740
     15 C         5.032214   0.242034   3.892159 C.3        1 UNL1     0.0520
     16 C         4.96386   0.252825   2.371248 C.3        1 UNL1     0.1322
     17 O         4.411369   -0.985941   1.873974 O.3        1 UNL1     -0.4828
     18 C         4.316965   1.513482   1.79246 C.ar        1 UNL1     -0.0067
     19 C         3.127831   2.007792   2.36677 C.ar        1 UNL1     -0.0516
     20 C         2.484761   3.130677   1.832398 C.ar        1 UNL1     -0.0198
     21 C         3.015582   3.762311   0.721949 C.ar        1 UNL1     0.1169
     22 C         4.203231   3.319254   0.154473 C.ar        1 UNL1     -0.0198
     23 C         4.856393   2.207514   0.69988 C.ar        1 UNL1     -0.0516
     24 O         2.34125   4.829972   0.206413 O.3        1 UNL1     -0.5068
     25 O         3.288186   0.642316   5.456341 O.2        1 UNL1     -0.2917
     26 O         1.023648   -0.814887   5.326138 O.3        1 UNL1     -0.5058
     27 O         1.964678   -1.06369   1.248413 O.3        1 UNL1     -0.3648
     28 O         0.335925   -0.589466   -1.936623 O.3        1 UNL1     -0.3841
     29 O         -1.57869   -1.730788   0.870952 O.3        1 UNL1     -0.3863
     30 O         -0.299885   -3.579434   -2.035467 O.3        1 UNL1     -0.3829
     31 H         2.37707   -0.979113   -0.701142 H        1 UNL1     0.0937
     32 H         -0.0   0.0   0.0 H        1 UNL1     0.0671
     33 H         -1.670511   -1.675975   -1.147043 H        1 UNL1     0.0649
     34 H         -1.293153   -4.047711   -0.301665 H        1 UNL1     0.0683
     35 H         1.063946   -4.724092   -0.272604 H        1 UNL1     0.1085
     36 H         -0.11824   -2.618531   3.929617 H        1 UNL1     0.0691
     37 H         2.902931   -2.773939   0.850888 H        1 UNL1     0.0691
     38 H         5.633466   -0.598625   4.254535 H        1 UNL1     0.0385
     39 H         5.460042   1.166852   4.293969 H        1 UNL1     0.0385
     40 H         5.997893   0.260537   2.000793 H        1 UNL1     0.0789
     41 H         2.686131   1.524282   3.233239 H        1 UNL1     0.0623
     42 H         1.561962   3.495075   2.276995 H        1 UNL1     0.0654
     43 H         4.635699   3.815547   -0.706094 H        1 UNL1     0.0654
     44 H         5.787821   1.895127   0.237601 H        1 UNL1     0.0623
     45 H         1.431331   4.552931   0.011443 H        1 UNL1     0.2921
     46 H         0.072993   -0.658893   5.210672 H        1 UNL1     0.2922
     47 H         1.837947   -0.110517   1.354531 H        1 UNL1     0.2126
     48 H         1.276775   -0.399961   -2.11724 H        1 UNL1     0.2101
     49 H         -0.922795   -1.671257   1.58373 H        1 UNL1     0.2100
     50 H         -0.990333   -3.074961   -2.513485 H        1 UNL1     0.2102
@<TRIPOS>BOND
     1     1     2    1
     2     1     6    1
     3     2     3    1
     4     3     4    1
     5     3    29    1
     6     3    33    1
     7     4     5    1
     8     5     6    1
     9     5     7    1
    10     5    35    1
    11     7     8    1
    12     8     9   ar
    13     8    13   ar
    14     9    10   ar
    15     9    36    1
    16    10    11   ar
    17    10    26    1
    18    11    12   ar
    19    11    14    1
    20    12    13   ar
    21    12    17    1
    22    13    37    1
    23    14    15    1
    24    14    25    2
    25    15    16    1
    26    15    38    1
    27    15    39    1
    28    16    17    1
    29    16    18    1
    30    16    40    1
    31    18    19   ar
    32    18    23   ar
    33    19    20   ar
    34    19    41    1
    35    20    21   ar
    36    20    42    1
    37    21    22   ar
    38    21    24    1
    39    22    23   ar
    40    22    43    1
    41    23    44    1
    42    24    45    1
    43    26    46    1
    44    27    47    1
    45    28    48    1
    46    29    49    1
    47    30    50    1
    48     1    31    1
    49     1    27    1
    50     2    32    1
    51     2    28    1
    52     4    34    1
    53     4    30    1
