@<TRIPOS>MOLECULE
*****
 50 53 0 0 0
SMALL
GASTEIGER

@<TRIPOS>ATOM
     1 C         -0.163995   -1.279351   1.762717 C.3        1 UNL1     0.1889
     2 C         -0.372123   -1.001378   0.249656 C.3        1 UNL1     0.1342
     3 C         -1.825303   -1.130451   -0.232083 C.3        1 UNL1     0.1174
     4 C         -2.597544   -2.231148   0.499509 C.3        1 UNL1     0.1456
     5 C         -2.395117   -2.180114   2.024889 C.3        1 UNL1     0.2326
     6 O         -1.006156   -2.269611   2.334157 O.3        1 UNL1     -0.3076
     7 O         -3.04333   -1.058535   2.651945 O.3        1 UNL1     -0.4605
     8 C         -3.50234   -1.266195   3.940245 C.ar        1 UNL1     0.1310
     9 C         -4.220745   -2.385613   4.373946 C.ar        1 UNL1     0.0226
     10 C         -4.627963   -2.512171   5.707385 C.ar        1 UNL1     0.1343
     11 C         -4.305682   -1.532566   6.645654 C.ar        1 UNL1     0.1007
     12 C         -3.62426   -0.390782   6.215796 C.ar        1 UNL1     0.1389
     13 C         -3.217216   -0.262528   4.874417 C.ar        1 UNL1     0.0229
     14 C         -4.637743   -1.654863   8.084032 C.2        1 UNL1     0.1740
     15 C         -4.023134   -0.622008   8.982372 C.3        1 UNL1     0.0520
     16 C         -4.080129   0.725764   8.276525 C.3        1 UNL1     0.1322
     17 O         -3.350386   0.683286   7.030435 O.3        1 UNL1     -0.4828
     18 C         -5.49307   1.303558   8.164825 C.ar        1 UNL1     -0.0067
     19 C         -5.691547   2.520538   7.480881 C.ar        1 UNL1     -0.0516
     20 C         -6.963242   3.100517   7.401009 C.ar        1 UNL1     -0.0198
     21 C         -8.040811   2.478529   8.005825 C.ar        1 UNL1     0.1169
     22 C         -7.883043   1.262475   8.657868 C.ar        1 UNL1     -0.0198
     23 C         -6.614796   0.672996   8.722065 C.ar        1 UNL1     -0.0516
     24 O         -9.25714   3.092164   7.939513 O.3        1 UNL1     -0.5068
     25 O         -5.303123   -2.576934   8.548296 O.2        1 UNL1     -0.2917
     26 O         -5.326642   -3.627985   6.065703 O.3        1 UNL1     -0.5058
     27 O         -0.127927   -0.102361   2.554034 O.3        1 UNL1     -0.3648
     28 O         0.413284   -1.946788   -0.500039 O.3        1 UNL1     -0.3841
     29 O         -2.488643   0.134496   -0.18711 O.3        1 UNL1     -0.3863
     30 O         -2.158679   -3.51927   0.01595 O.3        1 UNL1     -0.3829
     31 H         0.839779   -1.705469   1.867317 H        1 UNL1     0.0937
     32 H         0.0   0.0   0.0 H        1 UNL1     0.0671
     33 H         -1.802765   -1.410472   -1.294533 H        1 UNL1     0.0649
     34 H         -3.666666   -2.151249   0.273688 H        1 UNL1     0.0683
     35 H         -2.862288   -3.105358   2.384826 H        1 UNL1     0.1085
     36 H         -4.453763   -3.207535   3.705912 H        1 UNL1     0.0691
     37 H         -2.688944   0.636671   4.564801 H        1 UNL1     0.0691
     38 H         -2.987969   -0.923839   9.174358 H        1 UNL1     0.0385
     39 H         -4.559304   -0.612208   9.937466 H        1 UNL1     0.0385
     40 H         -3.522316   1.440044   8.897145 H        1 UNL1     0.0789
     41 H         -4.860262   3.033108   7.005604 H        1 UNL1     0.0623
     42 H         -7.101296   4.04524   6.88096 H        1 UNL1     0.0654
     43 H         -8.722832   0.759274   9.122039 H        1 UNL1     0.0654
     44 H         -6.529983   -0.282663   9.230364 H        1 UNL1     0.0623
     45 H         -9.195032   3.946396   8.396839 H        1 UNL1     0.2921
     46 H         -4.877823   -4.067065   6.805421 H        1 UNL1     0.2922
     47 H         0.542346   0.50788   2.216099 H        1 UNL1     0.2126
     48 H         1.350026   -1.734975   -0.322891 H        1 UNL1     0.2101
     49 H         -2.127288   0.72111   -0.870557 H        1 UNL1     0.2100
     50 H         -2.425326   -3.595437   -0.92363 H        1 UNL1     0.2102
@<TRIPOS>BOND
     1     1     2    1
     2     1     6    1
     3     2     3    1
     4     3     4    1
     5     3    29    1
     6     3    33    1
     7     4     5    1
     8     5     6    1
     9     5     7    1
    10     5    35    1
    11     7     8    1
    12     8     9   ar
    13     8    13   ar
    14     9    10   ar
    15     9    36    1
    16    10    11   ar
    17    10    26    1
    18    11    12   ar
    19    11    14    1
    20    12    13   ar
    21    12    17    1
    22    13    37    1
    23    14    15    1
    24    14    25    2
    25    15    16    1
    26    15    38    1
    27    15    39    1
    28    16    17    1
    29    16    18    1
    30    16    40    1
    31    18    19   ar
    32    18    23   ar
    33    19    20   ar
    34    19    41    1
    35    20    21   ar
    36    20    42    1
    37    21    22   ar
    38    21    24    1
    39    22    23   ar
    40    22    43    1
    41    23    44    1
    42    24    45    1
    43    26    46    1
    44    27    47    1
    45    28    48    1
    46    29    49    1
    47    30    50    1
    48     1    31    1
    49     1    27    1
    50     2    32    1
    51     2    28    1
    52     4    34    1
    53     4    30    1
