@<TRIPOS>MOLECULE
*****
 50 53 0 0 0
SMALL
GASTEIGER

@<TRIPOS>ATOM
     1 C         -0.325314   -1.366186   1.672875 C.3        1 UNL1     0.1889
     2 C         -0.461541   -0.979655   0.175552 C.3        1 UNL1     0.1342
     3 C         -1.904384   -0.955552   -0.351789 C.3        1 UNL1     0.1174
     4 C         -2.787998   -2.029557   0.287631 C.3        1 UNL1     0.1456
     5 C         -2.630586   -2.08915   1.818002 C.3        1 UNL1     0.2326
     6 O         -1.264339   -2.314651   2.157687 O.3        1 UNL1     -0.3076
     7 O         -3.203243   -0.957137   2.497658 O.3        1 UNL1     -0.4605
     8 C         -3.71856   -1.203523   3.757527 C.ar        1 UNL1     0.1310
     9 C         -4.534976   -2.286295   4.101576 C.ar        1 UNL1     0.0226
     10 C         -4.993889   -2.458731   5.412898 C.ar        1 UNL1     0.1343
     11 C         -4.627608   -1.564736   6.418111 C.ar        1 UNL1     0.1007
     12 C         -3.846442   -0.457012   6.07824 C.ar        1 UNL1     0.1389
     13 C         -3.387314   -0.282406   4.759095 C.ar        1 UNL1     0.0229
     14 C         -5.014711   -1.745065   7.836485 C.2        1 UNL1     0.1740
     15 C         -4.351719   -0.818827   8.813253 C.3        1 UNL1     0.0520
     16 C         -4.281496   0.568526   8.190135 C.3        1 UNL1     0.1322
     17 O         -3.517084   0.542105   6.964555 O.3        1 UNL1     -0.4828
     18 C         -5.641223   1.261765   8.074868 C.ar        1 UNL1     -0.0067
     19 C         -5.768616   2.40546   7.260039 C.ar        1 UNL1     -0.0516
     20 C         -6.985891   3.091046   7.169616 C.ar        1 UNL1     -0.0198
     21 C         -8.078717   2.648281   7.893161 C.ar        1 UNL1     0.1169
     22 C         -7.993529   1.505719   8.678102 C.ar        1 UNL1     -0.0198
     23 C         -6.781419   0.809268   8.754274 C.ar        1 UNL1     -0.0516
     24 O         -9.237163   3.363422   7.809626 O.3        1 UNL1     -0.5068
     25 O         -5.764044   -2.637445   8.224613 O.2        1 UNL1     -0.2917
     26 O         -5.78792   -3.535026   5.682506 O.3        1 UNL1     -0.5058
     27 O         -0.217015   -0.247037   2.538072 O.3        1 UNL1     -0.3648
     28 O         0.266258   -1.940582   -0.611616 O.3        1 UNL1     -0.3841
     29 O         -2.461745   0.355893   -0.244124 O.3        1 UNL1     -0.3863
     30 O         -2.442218   -3.318245   -0.265005 O.3        1 UNL1     -0.3829
     31 H         0.635878   -1.88135   1.776768 H        1 UNL1     0.0937
     32 H         0.0   0.0   0.0 H        1 UNL1     0.0671
     33 H         -1.87139   -1.171029   -1.428915 H        1 UNL1     0.0649
     34 H         -3.839113   -1.845778   0.039068 H        1 UNL1     0.0683
     35 H         -3.183995   -2.991778   2.105891 H        1 UNL1     0.1085
     36 H         -4.80892   -3.046375   3.378143 H        1 UNL1     0.0691
     37 H         -2.781401   0.588926   4.52005 H        1 UNL1     0.0691
     38 H         -3.349742   -1.212329   9.015056 H        1 UNL1     0.0385
     39 H         -4.916301   -0.823054   9.751873 H        1 UNL1     0.0385
     40 H         -3.690669   1.198617   8.868684 H        1 UNL1     0.0789
     41 H         -4.923129   2.778404   6.689325 H        1 UNL1     0.0623
     42 H         -7.068237   3.978602   6.547141 H        1 UNL1     0.0654
     43 H         -8.847265   1.141575   9.23707 H        1 UNL1     0.0654
     44 H         -6.753658   -0.085373   9.368841 H        1 UNL1     0.0623
     45 H         -9.073189   4.254693   8.158144 H        1 UNL1     0.2921
     46 H         -5.398633   -4.051085   6.406075 H        1 UNL1     0.2922
     47 H         0.5119   0.32377   2.2575 H        1 UNL1     0.2126
     48 H         1.211227   -1.82006   -0.396582 H        1 UNL1     0.2101
     49 H         -2.031513   0.95047   -0.879083 H        1 UNL1     0.2100
     50 H         -2.705015   -3.32194   -1.20874 H        1 UNL1     0.2102
@<TRIPOS>BOND
     1     1     2    1
     2     1     6    1
     3     2     3    1
     4     3     4    1
     5     3    29    1
     6     3    33    1
     7     4     5    1
     8     5     6    1
     9     5     7    1
    10     5    35    1
    11     7     8    1
    12     8     9   ar
    13     8    13   ar
    14     9    10   ar
    15     9    36    1
    16    10    11   ar
    17    10    26    1
    18    11    12   ar
    19    11    14    1
    20    12    13   ar
    21    12    17    1
    22    13    37    1
    23    14    15    1
    24    14    25    2
    25    15    16    1
    26    15    38    1
    27    15    39    1
    28    16    17    1
    29    16    18    1
    30    16    40    1
    31    18    19   ar
    32    18    23   ar
    33    19    20   ar
    34    19    41    1
    35    20    21   ar
    36    20    42    1
    37    21    22   ar
    38    21    24    1
    39    22    23   ar
    40    22    43    1
    41    23    44    1
    42    24    45    1
    43    26    46    1
    44    27    47    1
    45    28    48    1
    46    29    49    1
    47    30    50    1
    48     1    31    1
    49     1    27    1
    50     2    32    1
    51     2    28    1
    52     4    34    1
    53     4    30    1
