@<TRIPOS>MOLECULE
*****
 50 53 0 0 0
SMALL
GASTEIGER

@<TRIPOS>ATOM
     1 C         1.069125   1.528997   1.135756 C.3        1 UNL1     0.1889
     2 C         0.3429   1.032217   -0.143207 C.3        1 UNL1     0.1342
     3 C         1.182557   1.107672   -1.427632 C.3        1 UNL1     0.1174
     4 C         2.123252   2.314996   -1.451674 C.3        1 UNL1     0.1456
     5 C         2.894937   2.488353   -0.13076 C.3        1 UNL1     0.2326
     6 O         1.978941   2.604268   0.955694 O.3        1 UNL1     -0.3076
     7 O         3.900627   1.481063   0.082021 O.3        1 UNL1     -0.4605
     8 C         4.597516   1.562527   1.274178 C.ar        1 UNL1     0.1310
     9 C         4.697187   0.541965   2.225923 C.ar        1 UNL1     0.0226
     10 C         5.442959   0.715632   3.397916 C.ar        1 UNL1     0.1343
     11 C         6.12738   1.906805   3.635648 C.ar        1 UNL1     0.1007
     12 C         6.001924   2.947976   2.712064 C.ar        1 UNL1     0.1389
     13 C         5.249837   2.774049   1.534972 C.ar        1 UNL1     0.0229
     14 C         6.997648   2.113705   4.816317 C.2        1 UNL1     0.1740
     15 C         7.829026   3.362731   4.799211 C.3        1 UNL1     0.0520
     16 C         6.981615   4.497945   4.24141 C.3        1 UNL1     0.1322
     17 O         6.54391   4.198616   2.897577 O.3        1 UNL1     -0.4828
     18 C         5.866416   4.955352   5.18472 C.ar        1 UNL1     -0.0067
     19 C         5.44033   6.299103   5.153113 C.ar        1 UNL1     -0.0516
     20 C         4.456085   6.761502   6.034822 C.ar        1 UNL1     -0.0198
     21 C         3.896695   5.893799   6.955692 C.ar        1 UNL1     0.1169
     22 C         4.271531   4.556919   6.9887 C.ar        1 UNL1     -0.0198
     23 C         5.242499   4.089906   6.094733 C.ar        1 UNL1     -0.0516
     24 O         2.968277   6.388975   7.823586 O.3        1 UNL1     -0.5068
     25 O         7.111094   1.294644   5.724477 O.2        1 UNL1     -0.2917
     26 O         5.499121   -0.318366   4.286329 O.3        1 UNL1     -0.5058
     27 O         1.640894   0.482192   1.903914 O.3        1 UNL1     -0.3648
     28 O         -0.82743   1.845267   -0.348104 O.3        1 UNL1     -0.3841
     29 O         1.861392   -0.127619   -1.662942 O.3        1 UNL1     -0.3863
     30 O         1.35271   3.511065   -1.699413 O.3        1 UNL1     -0.3829
     31 H         0.298181   1.952511   1.788718 H        1 UNL1     0.0937
     32 H         0.0   -0.0   0.0 H        1 UNL1     0.0671
     33 H         0.491303   1.22649   -2.273664 H        1 UNL1     0.0649
     34 H         2.836866   2.216701   -2.277201 H        1 UNL1     0.0683
     35 H         3.387443   3.46293   -0.238076 H        1 UNL1     0.1085
     36 H         4.234569   -0.426996   2.073544 H        1 UNL1     0.0691
     37 H         5.166905   3.600463   0.832366 H        1 UNL1     0.0691
     38 H         8.700691   3.1717   4.164203 H        1 UNL1     0.0385
     39 H         8.184326   3.57134   5.814111 H        1 UNL1     0.0385
     40 H         7.641412   5.368724   4.127693 H        1 UNL1     0.0789
     41 H         5.870467   7.002193   4.445796 H        1 UNL1     0.0623
     42 H         4.144528   7.802778   6.008607 H        1 UNL1     0.0654
     43 H         3.829087   3.865313   7.69569 H        1 UNL1     0.0654
     44 H         5.503659   3.037071   6.141413 H        1 UNL1     0.0623
     45 H         2.371619   5.666935   8.079269 H        1 UNL1     0.2921
     46 H         5.244837   -0.001899   5.167578 H        1 UNL1     0.2922
     47 H         1.239672   0.454917   2.783764 H        1 UNL1     0.2126
     48 H         -1.212713   1.570635   -1.202426 H        1 UNL1     0.2101
     49 H         1.914649   -0.637131   -0.838712 H        1 UNL1     0.2100
     50 H         0.688407   3.595267   -0.984343 H        1 UNL1     0.2102
@<TRIPOS>BOND
     1     1     2    1
     2     1     6    1
     3     2     3    1
     4     3     4    1
     5     3    29    1
     6     3    33    1
     7     4     5    1
     8     5     6    1
     9     5     7    1
    10     5    35    1
    11     7     8    1
    12     8     9   ar
    13     8    13   ar
    14     9    10   ar
    15     9    36    1
    16    10    11   ar
    17    10    26    1
    18    11    12   ar
    19    11    14    1
    20    12    13   ar
    21    12    17    1
    22    13    37    1
    23    14    15    1
    24    14    25    2
    25    15    16    1
    26    15    38    1
    27    15    39    1
    28    16    17    1
    29    16    18    1
    30    16    40    1
    31    18    19   ar
    32    18    23   ar
    33    19    20   ar
    34    19    41    1
    35    20    21   ar
    36    20    42    1
    37    21    22   ar
    38    21    24    1
    39    22    23   ar
    40    22    43    1
    41    23    44    1
    42    24    45    1
    43    26    46    1
    44    27    47    1
    45    28    48    1
    46    29    49    1
    47    30    50    1
    48     1    31    1
    49     1    27    1
    50     2    32    1
    51     2    28    1
    52     4    34    1
    53     4    30    1
