@<TRIPOS>MOLECULE
*****
 50 53 0 0 0
SMALL
GASTEIGER

@<TRIPOS>ATOM
     1 C         -0.134931   0.031797   2.179813 C.3        1 UNL1     0.1889
     2 C         -0.737069   0.265148   0.768106 C.3        1 UNL1     0.1342
     3 C         -1.235255   1.695758   0.511921 C.3        1 UNL1     0.1174
     4 C         -1.831363   2.349265   1.761201 C.3        1 UNL1     0.1456
     5 C         -0.947635   2.156231   3.007044 C.3        1 UNL1     0.2326
     6 O         -0.731238   0.766154   3.238838 O.3        1 UNL1     -0.3076
     7 O         0.271556   2.920066   2.968946 O.3        1 UNL1     -0.4605
     8 C         1.445775   2.189116   2.99013 C.ar        1 UNL1     0.1310
     9 C         1.845669   1.269686   2.014408 C.ar        1 UNL1     0.0226
     10 C         3.065046   0.589651   2.117238 C.ar        1 UNL1     0.1343
     11 C         3.925856   0.830474   3.187215 C.ar        1 UNL1     0.1007
     12 C         3.519009   1.715844   4.188904 C.ar        1 UNL1     0.1389
     13 C         2.291697   2.397514   4.086628 C.ar        1 UNL1     0.0229
     14 C         5.26263   0.202835   3.302366 C.2        1 UNL1     0.1740
     15 C         6.141451   0.742251   4.392435 C.3        1 UNL1     0.0520
     16 C         5.282963   0.990037   5.625138 C.3        1 UNL1     0.1322
     17 O         4.238204   1.945823   5.338745 O.3        1 UNL1     -0.4828
     18 C         4.800128   -0.292079   6.307614 C.ar        1 UNL1     -0.0067
     19 C         5.741543   -1.26935   6.690879 C.ar        1 UNL1     -0.0516
     20 C         5.329831   -2.473643   7.274091 C.ar        1 UNL1     -0.0198
     21 C         3.982151   -2.715212   7.472158 C.ar        1 UNL1     0.1169
     22 C         3.033479   -1.758236   7.135917 C.ar        1 UNL1     -0.0198
     23 C         3.446183   -0.546189   6.569637 C.ar        1 UNL1     -0.0516
     24 O         3.616381   -3.915032   8.007922 O.3        1 UNL1     -0.5068
     25 O         5.67983   -0.647674   2.52066 O.2        1 UNL1     -0.2917
     26 O         3.395722   -0.294962   1.132505 O.3        1 UNL1     -0.5058
     27 O         1.280592   0.121295   2.212533 O.3        1 UNL1     -0.3648
     28 O         -1.862624   -0.616812   0.600834 O.3        1 UNL1     -0.3841
     29 O         -0.21139   2.488618   -0.092402 O.3        1 UNL1     -0.3863
     30 O         -3.131344   1.776361   2.021048 O.3        1 UNL1     -0.3829
     31 H         -0.345299   -1.011045   2.441164 H        1 UNL1     0.0937
     32 H         0.0   0.0   0.0 H        1 UNL1     0.0671
     33 H         -2.040811   1.641858   -0.233662 H        1 UNL1     0.0649
     34 H         -1.982112   3.420428   1.587173 H        1 UNL1     0.0683
     35 H         -1.56999   2.524121   3.832399 H        1 UNL1     0.1085
     36 H         1.246999   1.079918   1.130268 H        1 UNL1     0.0691
     37 H         1.997498   3.080802   4.88039 H        1 UNL1     0.0691
     38 H         6.587301   1.673833   4.02788 H        1 UNL1     0.0385
     39 H         6.94997   0.029465   4.587405 H        1 UNL1     0.0385
     40 H         5.918771   1.492279   6.366773 H        1 UNL1     0.0789
     41 H         6.804549   -1.107535   6.537635 H        1 UNL1     0.0623
     42 H         6.064607   -3.224337   7.554401 H        1 UNL1     0.0654
     43 H         1.976591   -1.930873   7.300516 H        1 UNL1     0.0654
     44 H         2.678714   0.183112   6.328895 H        1 UNL1     0.0623
     45 H         2.776549   -3.79661   8.480548 H        1 UNL1     0.2921
     46 H         4.282014   -0.088197   0.796133 H        1 UNL1     0.2922
     47 H         1.608861   0.533407   1.4012 H        1 UNL1     0.2126
     48 H         -2.387033   -0.56   1.422722 H        1 UNL1     0.2101
     49 H         -0.155401   2.288577   -1.040369 H        1 UNL1     0.2100
     50 H         -3.190591   1.585764   2.980149 H        1 UNL1     0.2102
@<TRIPOS>BOND
     1     1     2    1
     2     1     6    1
     3     2     3    1
     4     3     4    1
     5     3    29    1
     6     3    33    1
     7     4     5    1
     8     5     6    1
     9     5     7    1
    10     5    35    1
    11     7     8    1
    12     8     9   ar
    13     8    13   ar
    14     9    10   ar
    15     9    36    1
    16    10    11   ar
    17    10    26    1
    18    11    12   ar
    19    11    14    1
    20    12    13   ar
    21    12    17    1
    22    13    37    1
    23    14    15    1
    24    14    25    2
    25    15    16    1
    26    15    38    1
    27    15    39    1
    28    16    17    1
    29    16    18    1
    30    16    40    1
    31    18    19   ar
    32    18    23   ar
    33    19    20   ar
    34    19    41    1
    35    20    21   ar
    36    20    42    1
    37    21    22   ar
    38    21    24    1
    39    22    23   ar
    40    22    43    1
    41    23    44    1
    42    24    45    1
    43    26    46    1
    44    27    47    1
    45    28    48    1
    46    29    49    1
    47    30    50    1
    48     1    31    1
    49     1    27    1
    50     2    32    1
    51     2    28    1
    52     4    34    1
    53     4    30    1
