@<TRIPOS>MOLECULE
*****
 50 53 0 0 0
SMALL
GASTEIGER

@<TRIPOS>ATOM
     1 C         1.743027   -0.990535   0.866893 C.3        1 UNL1     0.1889
     2 C         0.212637   -0.746809   0.774999 C.3        1 UNL1     0.1342
     3 C         -0.446513   -0.305263   2.090682 C.3        1 UNL1     0.1174
     4 C         0.195038   -0.950412   3.321662 C.3        1 UNL1     0.1456
     5 C         1.733057   -0.891012   3.285159 C.3        1 UNL1     0.2326
     6 O         2.215614   -1.516584   2.098286 O.3        1 UNL1     -0.3076
     7 O         2.260349   0.433715   3.481075 O.3        1 UNL1     -0.4605
     8 C         2.88072   1.007363   2.385815 C.ar        1 UNL1     0.1310
     9 C         2.857084   2.368127   2.06168 C.ar        1 UNL1     0.0226
     10 C         3.532912   2.856036   0.936912 C.ar        1 UNL1     0.1343
     11 C         4.269211   1.997636   0.121526 C.ar        1 UNL1     0.1007
     12 C         4.266521   0.630684   0.41173 C.ar        1 UNL1     0.1389
     13 C         3.584723   0.139965   1.541233 C.ar        1 UNL1     0.0229
     14 C         5.070435   2.471437   -1.030735 C.2        1 UNL1     0.1740
     15 C         5.973327   1.449973   -1.657591 C.3        1 UNL1     0.0520
     16 C         5.232941   0.120723   -1.711256 C.3        1 UNL1     0.1322
     17 O         4.867893   -0.316871   -0.383732 O.3        1 UNL1     -0.4828
     18 C         4.086896   0.094268   -2.725458 C.ar        1 UNL1     -0.0067
     19 C         3.873033   1.211936   -3.558102 C.ar        1 UNL1     -0.0516
     20 C         2.805316   1.23958   -4.463186 C.ar        1 UNL1     -0.0198
     21 C         1.942009   0.161312   -4.539787 C.ar        1 UNL1     0.1169
     22 C         2.146268   -0.967397   -3.756758 C.ar        1 UNL1     -0.0198
     23 C         3.224745   -1.00286   -2.864747 C.ar        1 UNL1     -0.0516
     24 O         0.89128   0.239726   -5.405939 O.3        1 UNL1     -0.5068
     25 O         5.075275   3.63726   -1.417154 O.2        1 UNL1     -0.2917
     26 O         3.469322   4.193678   0.675654 O.3        1 UNL1     -0.5058
     27 O         2.518683   0.117483   0.438594 O.3        1 UNL1     -0.3648
     28 O         -0.421128   -1.974136   0.369143 O.3        1 UNL1     -0.3841
     29 O         -0.500232   1.120117   2.17751 O.3        1 UNL1     -0.3863
     30 O         -0.214279   -2.333204   3.39936 O.3        1 UNL1     -0.3829
     31 H         1.978066   -1.77965   0.144305 H        1 UNL1     0.0937
     32 H         0.0   0.0   0.0 H        1 UNL1     0.0671
     33 H         -1.494319   -0.635902   2.068296 H        1 UNL1     0.0649
     34 H         -0.164396   -0.458089   4.232061 H        1 UNL1     0.0683
     35 H         2.042239   -1.522984   4.127119 H        1 UNL1     0.1085
     36 H         2.349194   3.094436   2.686695 H        1 UNL1     0.0691
     37 H         3.59716   -0.928662   1.744643 H        1 UNL1     0.0691
     38 H         6.872173   1.376599   -1.036127 H        1 UNL1     0.0385
     39 H         6.272628   1.797659   -2.652232 H        1 UNL1     0.0385
     40 H         5.948991   -0.634706   -2.06214 H        1 UNL1     0.0789
     41 H         4.531183   2.074623   -3.510559 H        1 UNL1     0.0623
     42 H         2.64393   2.112114   -5.091398 H        1 UNL1     0.0654
     43 H         1.485112   -1.823463   -3.819485 H        1 UNL1     0.0654
     44 H         3.360487   -1.90498   -2.276021 H        1 UNL1     0.0623
     45 H         0.902726   1.116245   -5.823431 H        1 UNL1     0.2921
     46 H         4.36409   4.536331   0.522709 H        1 UNL1     0.2922
     47 H         1.942898   0.8234   0.112998 H        1 UNL1     0.2126
     48 H         -0.36662   -2.58238   1.131245 H        1 UNL1     0.2101
     49 H         0.362642   1.497734   1.943742 H        1 UNL1     0.2100
     50 H         -1.170381   -2.353141   3.611923 H        1 UNL1     0.2102
@<TRIPOS>BOND
     1     1     2    1
     2     1     6    1
     3     2     3    1
     4     3     4    1
     5     3    29    1
     6     3    33    1
     7     4     5    1
     8     5     6    1
     9     5     7    1
    10     5    35    1
    11     7     8    1
    12     8     9   ar
    13     8    13   ar
    14     9    10   ar
    15     9    36    1
    16    10    11   ar
    17    10    26    1
    18    11    12   ar
    19    11    14    1
    20    12    13   ar
    21    12    17    1
    22    13    37    1
    23    14    15    1
    24    14    25    2
    25    15    16    1
    26    15    38    1
    27    15    39    1
    28    16    17    1
    29    16    18    1
    30    16    40    1
    31    18    19   ar
    32    18    23   ar
    33    19    20   ar
    34    19    41    1
    35    20    21   ar
    36    20    42    1
    37    21    22   ar
    38    21    24    1
    39    22    23   ar
    40    22    43    1
    41    23    44    1
    42    24    45    1
    43    26    46    1
    44    27    47    1
    45    28    48    1
    46    29    49    1
    47    30    50    1
    48     1    31    1
    49     1    27    1
    50     2    32    1
    51     2    28    1
    52     4    34    1
    53     4    30    1
