@<TRIPOS>MOLECULE
*****
 50 53 0 0 0
SMALL
GASTEIGER

@<TRIPOS>ATOM
     1 C         -0.329065   -1.364666   1.673382 C.3        1 UNL1     0.1889
     2 C         -0.462769   -0.979068   0.175591 C.3        1 UNL1     0.1342
     3 C         -1.904833   -0.953904   -0.353827 C.3        1 UNL1     0.1174
     4 C         -2.79043   -2.026569   0.285096 C.3        1 UNL1     0.1456
     5 C         -2.635262   -2.085227   1.815732 C.3        1 UNL1     0.2326
     6 O         -1.269727   -2.311847   2.157529 O.3        1 UNL1     -0.3076
     7 O         -3.207758   -0.952158   2.493762 O.3        1 UNL1     -0.4605
     8 C         -3.725119   -1.19713   3.753069 C.ar        1 UNL1     0.1310
     9 C         -4.548765   -2.275044   4.095138 C.ar        1 UNL1     0.0226
     10 C         -5.009253   -2.44652   5.406034 C.ar        1 UNL1     0.1343
     11 C         -4.637438   -1.556541   6.412778 C.ar        1 UNL1     0.1007
     12 C         -3.84888   -0.453451   6.074915 C.ar        1 UNL1     0.1389
     13 C         -3.388159   -0.279794   4.7562 C.ar        1 UNL1     0.0229
     14 C         -5.026207   -1.736552   7.830737 C.2        1 UNL1     0.1740
     15 C         -4.357466   -0.816241   8.809186 C.3        1 UNL1     0.0520
     16 C         -4.277896   0.5716   8.188281 C.3        1 UNL1     0.1322
     17 O         -3.513254   0.542078   6.962915 O.3        1 UNL1     -0.4828
     18 C         -5.632989   1.273959   8.073655 C.ar        1 UNL1     -0.0067
     19 C         -5.706007   2.542522   7.462403 C.ar        1 UNL1     -0.0516
     20 C         -6.921304   3.233037   7.383625 C.ar        1 UNL1     -0.0198
     21 C         -8.066684   2.670245   7.917663 C.ar        1 UNL1     0.1169
     22 C         -8.033072   1.408015   8.496007 C.ar        1 UNL1     -0.0198
     23 C         -6.821484   0.709294   8.558454 C.ar        1 UNL1     -0.0516
     24 O         -9.224473   3.38867   7.856081 O.3        1 UNL1     -0.5068
     25 O         -5.781533   -2.624589   8.217207 O.2        1 UNL1     -0.2917
     26 O         -5.810446   -3.517987   5.673679 O.3        1 UNL1     -0.5058
     27 O         -0.220884   -0.245008   2.537935 O.3        1 UNL1     -0.3648
     28 O         0.265193   -1.941283   -0.609852 O.3        1 UNL1     -0.3841
     29 O         -2.461038   0.358173   -0.247893 O.3        1 UNL1     -0.3863
     30 O         -2.445148   -3.315997   -0.266127 O.3        1 UNL1     -0.3829
     31 H         0.631463   -1.880714   1.779015 H        1 UNL1     0.0937
     32 H         0.0   0.0   0.0 H        1 UNL1     0.0671
     33 H         -1.870517   -1.170182   -1.430751 H        1 UNL1     0.0649
     34 H         -3.841006   -1.841921   0.034901 H        1 UNL1     0.0683
     35 H         -3.189983   -2.987096   2.103473 H        1 UNL1     0.1085
     36 H         -4.827459   -3.032162   3.370416 H        1 UNL1     0.0691
     37 H         -2.77644   0.587905   4.518732 H        1 UNL1     0.0691
     38 H         -3.358171   -1.21665   9.010701 H        1 UNL1     0.0385
     39 H         -4.922385   -0.818228   9.74761 H        1 UNL1     0.0385
     40 H         -3.683166   1.196717   8.86802 H        1 UNL1     0.0789
     41 H         -4.819378   3.009769   7.043811 H        1 UNL1     0.0623
     42 H         -6.962393   4.215774   6.920428 H        1 UNL1     0.0654
     43 H         -8.927017   0.951484   8.903872 H        1 UNL1     0.0654
     44 H         -6.833944   -0.279049   9.007749 H        1 UNL1     0.0623
     45 H         -9.106283   4.205277   8.367844 H        1 UNL1     0.2921
     46 H         -5.424814   -4.037737   6.396562 H        1 UNL1     0.2922
     47 H         0.509001   0.324872   2.257997 H        1 UNL1     0.2126
     48 H         1.209974   -1.82155   -0.393554 H        1 UNL1     0.2101
     49 H         -2.029306   0.951867   -0.88266 H        1 UNL1     0.2100
     50 H         -2.685855   -3.312194   -1.215737 H        1 UNL1     0.2102
@<TRIPOS>BOND
     1     1     2    1
     2     1     6    1
     3     2     3    1
     4     3     4    1
     5     3    29    1
     6     3    33    1
     7     4     5    1
     8     5     6    1
     9     5     7    1
    10     5    35    1
    11     7     8    1
    12     8     9   ar
    13     8    13   ar
    14     9    10   ar
    15     9    36    1
    16    10    11   ar
    17    10    26    1
    18    11    12   ar
    19    11    14    1
    20    12    13   ar
    21    12    17    1
    22    13    37    1
    23    14    15    1
    24    14    25    2
    25    15    16    1
    26    15    38    1
    27    15    39    1
    28    16    17    1
    29    16    18    1
    30    16    40    1
    31    18    19   ar
    32    18    23   ar
    33    19    20   ar
    34    19    41    1
    35    20    21   ar
    36    20    42    1
    37    21    22   ar
    38    21    24    1
    39    22    23   ar
    40    22    43    1
    41    23    44    1
    42    24    45    1
    43    26    46    1
    44    27    47    1
    45    28    48    1
    46    29    49    1
    47    30    50    1
    48     1    31    1
    49     1    27    1
    50     2    32    1
    51     2    28    1
    52     4    34    1
    53     4    30    1
