@<TRIPOS>MOLECULE
*****
 50 53 0 0 0
SMALL
GASTEIGER

@<TRIPOS>ATOM
     1 C         -0.323092   -1.362479   1.676325 C.3        1 UNL1     0.1889
     2 C         -0.46442   -0.977662   0.179034 C.3        1 UNL1     0.1342
     3 C         -1.909455   -0.94895   -0.342039 C.3        1 UNL1     0.1174
     4 C         -2.794266   -2.018696   0.302842 C.3        1 UNL1     0.1456
     5 C         -2.630388   -2.076608   1.832598 C.3        1 UNL1     0.2326
     6 O         -1.26352   -2.306709   2.166653 O.3        1 UNL1     -0.3076
     7 O         -3.195842   -0.941457   2.51305 O.3        1 UNL1     -0.4605
     8 C         -3.706563   -1.184047   3.775525 C.ar        1 UNL1     0.1310
     9 C         -3.480195   -0.392969   4.907008 C.ar        1 UNL1     0.0226
     10 C         -4.057661   -0.713375   6.141421 C.ar        1 UNL1     0.1343
     11 C         -4.895573   -1.820397   6.268889 C.ar        1 UNL1     0.1007
     12 C         -5.096175   -2.641137   5.155818 C.ar        1 UNL1     0.1389
     13 C         -4.513298   -2.320243   3.91537 C.ar        1 UNL1     0.0229
     14 C         -5.598634   -2.157446   7.528356 C.2        1 UNL1     0.1740
     15 C         -6.628401   -3.244057   7.426343 C.3        1 UNL1     0.0520
     16 C         -6.087496   -4.336325   6.514022 C.3        1 UNL1     0.1322
     17 O         -5.813881   -3.814004   5.195165 O.3        1 UNL1     -0.4828
     18 C         -4.939114   -5.140027   7.128845 C.ar        1 UNL1     -0.0067
     19 C         -3.772891   -5.372231   6.371072 C.ar        1 UNL1     -0.0516
     20 C         -2.723612   -6.143142   6.885537 C.ar        1 UNL1     -0.0198
     21 C         -2.831236   -6.692258   8.150731 C.ar        1 UNL1     0.1169
     22 C         -3.952956   -6.453579   8.934067 C.ar        1 UNL1     -0.0198
     23 C         -4.994516   -5.667389   8.427003 C.ar        1 UNL1     -0.0516
     24 O         -1.805392   -7.468792   8.603543 O.3        1 UNL1     -0.5068
     25 O         -5.427539   -1.5495   8.581738 O.2        1 UNL1     -0.2917
     26 O         -3.796259   0.098483   7.206381 O.3        1 UNL1     -0.5058
     27 O         -0.206838   -0.242462   2.539363 O.3        1 UNL1     -0.3648
     28 O         0.256341   -1.942468   -0.609864 O.3        1 UNL1     -0.3841
     29 O         -2.461444   0.364727   -0.233907 O.3        1 UNL1     -0.3863
     30 O         -2.455714   -3.309485   -0.249367 O.3        1 UNL1     -0.3829
     31 H         0.636617   -1.881077   1.776793 H        1 UNL1     0.0937
     32 H         0.0   0.0   0.0 H        1 UNL1     0.0671
     33 H         -1.881974   -1.166145   -1.418975 H        1 UNL1     0.0649
     34 H         -3.845764   -1.83136   0.058594 H        1 UNL1     0.0683
     35 H         -3.185897   -2.976734   2.124253 H        1 UNL1     0.1085
     36 H         -2.883915   0.511678   4.860276 H        1 UNL1     0.0691
     37 H         -4.684078   -2.976048   3.064343 H        1 UNL1     0.0691
     38 H         -7.539549   -2.79905   7.012454 H        1 UNL1     0.0385
     39 H         -6.856049   -3.618228   8.430311 H        1 UNL1     0.0385
     40 H         -6.898909   -5.06041   6.359653 H        1 UNL1     0.0789
     41 H         -3.667954   -4.959853   5.371781 H        1 UNL1     0.0623
     42 H         -1.834512   -6.324912   6.286812 H        1 UNL1     0.0654
     43 H         -4.041116   -6.866275   9.931974 H        1 UNL1     0.0654
     44 H         -5.851401   -5.492711   9.070495 H        1 UNL1     0.0623
     45 H         -1.725176   -8.241295   8.020857 H        1 UNL1     0.2921
     46 H         -4.631457   0.424096   7.577641 H        1 UNL1     0.2922
     47 H         0.522968   0.325201   2.254756 H        1 UNL1     0.2126
     48 H         1.196449   -1.863999   -0.357334 H        1 UNL1     0.2101
     49 H         -2.031535   0.956833   -0.871389 H        1 UNL1     0.2100
     50 H         -2.701909   -3.305749   -1.197569 H        1 UNL1     0.2102
@<TRIPOS>BOND
     1     1     2    1
     2     1     6    1
     3     2     3    1
     4     3     4    1
     5     3    29    1
     6     3    33    1
     7     4     5    1
     8     5     6    1
     9     5     7    1
    10     5    35    1
    11     7     8    1
    12     8     9   ar
    13     8    13   ar
    14     9    10   ar
    15     9    36    1
    16    10    11   ar
    17    10    26    1
    18    11    12   ar
    19    11    14    1
    20    12    13   ar
    21    12    17    1
    22    13    37    1
    23    14    15    1
    24    14    25    2
    25    15    16    1
    26    15    38    1
    27    15    39    1
    28    16    17    1
    29    16    18    1
    30    16    40    1
    31    18    19   ar
    32    18    23   ar
    33    19    20   ar
    34    19    41    1
    35    20    21   ar
    36    20    42    1
    37    21    22   ar
    38    21    24    1
    39    22    23   ar
    40    22    43    1
    41    23    44    1
    42    24    45    1
    43    26    46    1
    44    27    47    1
    45    28    48    1
    46    29    49    1
    47    30    50    1
    48     1    31    1
    49     1    27    1
    50     2    32    1
    51     2    28    1
    52     4    34    1
    53     4    30    1
