@<TRIPOS>MOLECULE
*****
 50 53 0 0 0
SMALL
GASTEIGER

@<TRIPOS>ATOM
     1 C         -0.559969   -1.409761   1.571563 C.3        1 UNL1     0.1889
     2 C         -0.575158   -0.929324   0.095457 C.3        1 UNL1     0.1342
     3 C         -1.977345   -0.71364   -0.494303 C.3        1 UNL1     0.1174
     4 C         -3.005822   -1.714142   0.038941 C.3        1 UNL1     0.1456
     5 C         -2.93528   -1.874419   1.568549 C.3        1 UNL1     0.2326
     6 O         -1.621613   -2.271032   1.955648 O.3        1 UNL1     -0.3076
     7 O         -3.414054   -0.723661   2.288169 O.3        1 UNL1     -0.4605
     8 C         -4.007261   -0.977474   3.511775 C.ar        1 UNL1     0.1310
     9 C         -4.953194   -1.977458   3.761861 C.ar        1 UNL1     0.0226
     10 C         -5.484375   -2.16709   5.043184 C.ar        1 UNL1     0.1343
     11 C         -5.064358   -1.375992   6.111637 C.ar        1 UNL1     0.1007
     12 C         -4.150824   -0.347476   5.865885 C.ar        1 UNL1     0.1389
     13 C         -3.618851   -0.155294   4.576893 C.ar        1 UNL1     0.0229
     14 C         -5.529722   -1.587383   7.501926 C.2        1 UNL1     0.1740
     15 C         -4.810301   -0.796472   8.554752 C.3        1 UNL1     0.0520
     16 C         -4.559319   0.605487   8.016721 C.3        1 UNL1     0.1322
     17 O         -3.75065   0.558514   6.820511 O.3        1 UNL1     -0.4828
     18 C         -5.827179   1.453899   7.892418 C.ar        1 UNL1     -0.0067
     19 C         -6.080212   2.149306   6.692169 C.ar        1 UNL1     -0.0516
     20 C         -7.205765   2.97159   6.562004 C.ar        1 UNL1     -0.0198
     21 C         -8.079966   3.112278   7.624927 C.ar        1 UNL1     0.1169
     22 C         -7.875663   2.414166   8.808033 C.ar        1 UNL1     -0.0198
     23 C         -6.760099   1.577389   8.932035 C.ar        1 UNL1     -0.0516
     24 O         -9.144789   3.951261   7.474392 O.3        1 UNL1     -0.5068
     25 O         -6.389745   -2.408483   7.809563 O.2        1 UNL1     -0.2917
     26 O         -6.404164   -3.159178   5.220204 O.3        1 UNL1     -0.5058
     27 O         -0.373864   -0.358824   2.506273 O.3        1 UNL1     -0.3648
     28 O         0.082019   -1.922022   -0.714094 O.3        1 UNL1     -0.3841
     29 O         -2.391586   0.644563   -0.333616 O.3        1 UNL1     -0.3863
     30 O         -2.776073   -3.001619   -0.573681 O.3        1 UNL1     -0.3829
     31 H         0.331922   -2.035133   1.687835 H        1 UNL1     0.0937
     32 H         0.0   0.0   0.0 H        1 UNL1     0.0671
     33 H         -1.912651   -0.872467   -1.579802 H        1 UNL1     0.0649
     34 H         -4.016011   -1.399496   -0.245519 H        1 UNL1     0.0683
     35 H         -3.598943   -2.723062   1.776479 H        1 UNL1     0.1085
     36 H         -5.278731   -2.661384   2.985722 H        1 UNL1     0.0691
     37 H         -2.909972   0.65318   4.411501 H        1 UNL1     0.0691
     38 H         -3.867976   -1.311553   8.769789 H        1 UNL1     0.0385
     39 H         -5.41165   -0.787133   9.470214 H        1 UNL1     0.0385
     40 H         -3.93171   1.126877   8.752098 H        1 UNL1     0.0789
     41 H         -5.404285   2.062725   5.846428 H        1 UNL1     0.0623
     42 H         -7.383544   3.511938   5.635489 H        1 UNL1     0.0654
     43 H         -8.56204   2.505322   9.641392 H        1 UNL1     0.0654
     44 H         -6.637282   1.038878   9.86679 H        1 UNL1     0.0623
     45 H         -8.808595   4.845021   7.298656 H        1 UNL1     0.2921
     46 H         -6.095021   -3.767666   5.909831 H        1 UNL1     0.2922
     47 H         0.438038   0.127542   2.305965 H        1 UNL1     0.2126
     48 H         1.001195   -1.983488   -0.389948 H        1 UNL1     0.2101
     49 H         -1.860215   1.221464   -0.905127 H        1 UNL1     0.2100
     50 H         -2.961329   -2.916925   -1.531918 H        1 UNL1     0.2102
@<TRIPOS>BOND
     1     1     2    1
     2     1     6    1
     3     2     3    1
     4     3     4    1
     5     3    29    1
     6     3    33    1
     7     4     5    1
     8     5     6    1
     9     5     7    1
    10     5    35    1
    11     7     8    1
    12     8     9   ar
    13     8    13   ar
    14     9    10   ar
    15     9    36    1
    16    10    11   ar
    17    10    26    1
    18    11    12   ar
    19    11    14    1
    20    12    13   ar
    21    12    17    1
    22    13    37    1
    23    14    15    1
    24    14    25    2
    25    15    16    1
    26    15    38    1
    27    15    39    1
    28    16    17    1
    29    16    18    1
    30    16    40    1
    31    18    19   ar
    32    18    23   ar
    33    19    20   ar
    34    19    41    1
    35    20    21   ar
    36    20    42    1
    37    21    22   ar
    38    21    24    1
    39    22    23   ar
    40    22    43    1
    41    23    44    1
    42    24    45    1
    43    26    46    1
    44    27    47    1
    45    28    48    1
    46    29    49    1
    47    30    50    1
    48     1    31    1
    49     1    27    1
    50     2    32    1
    51     2    28    1
    52     4    34    1
    53     4    30    1
