@<TRIPOS>MOLECULE
*****
 50 53 0 0 0
SMALL
GASTEIGER

@<TRIPOS>ATOM
     1 C         -0.393828   -1.378364   1.647973 C.3        1 UNL1     0.1889
     2 C         -0.493035   -0.967844   0.154129 C.3        1 UNL1     0.1342
     3 C         -1.925325   -0.89396   -0.396829 C.3        1 UNL1     0.1174
     4 C         -2.850888   -1.949861   0.212697 C.3        1 UNL1     0.1456
     5 C         -2.721474   -2.034689   1.7445 C.3        1 UNL1     0.2326
     6 O         -1.368442   -2.305071   2.103756 O.3        1 UNL1     -0.3076
     7 O         -3.272184   -0.895482   2.430246 O.3        1 UNL1     -0.4605
     8 C         -3.815971   -1.143455   3.677776 C.ar        1 UNL1     0.1310
     9 C         -4.672349   -2.204144   3.99219 C.ar        1 UNL1     0.0226
     10 C         -5.158245   -2.380793   5.29319 C.ar        1 UNL1     0.1343
     11 C         -4.780147   -1.513921   6.3176 C.ar        1 UNL1     0.1007
     12 C         -3.958264   -0.427216   6.007175 C.ar        1 UNL1     0.1389
     13 C         -3.471952   -0.248291   4.69839 C.ar        1 UNL1     0.0229
     14 C         -5.196309   -1.702348   7.726663 C.2        1 UNL1     0.1740
     15 C         -4.520185   -0.812444   8.727902 C.3        1 UNL1     0.0520
     16 C         -4.395099   0.580873   8.127088 C.3        1 UNL1     0.1322
     17 O         -3.611715   0.547646   6.913715 O.3        1 UNL1     -0.4828
     18 C         -5.729752   1.31938   8.00046 C.ar        1 UNL1     -0.0067
     19 C         -5.981539   2.439931   8.818497 C.ar        1 UNL1     -0.0516
     20 C         -7.209821   3.109301   8.761684 C.ar        1 UNL1     -0.0198
     21 C         -8.194929   2.664474   7.89825 C.ar        1 UNL1     0.1169
     22 C         -7.964662   1.584342   7.05615 C.ar        1 UNL1     -0.0198
     23 C         -6.72979   0.926114   7.099539 C.ar        1 UNL1     -0.0516
     24 O         -9.391993   3.318261   7.89769 O.3        1 UNL1     -0.5068
     25 O         -5.980261   -2.575582   8.08911 O.2        1 UNL1     -0.2917
     26 O         -5.990809   -3.434645   5.533639 O.3        1 UNL1     -0.5058
     27 O         -0.267523   -0.274663   2.5304 O.3        1 UNL1     -0.3648
     28 O         0.219587   -1.939199   -0.634126 O.3        1 UNL1     -0.3841
     29 O         -2.445703   0.431834   -0.280178 O.3        1 UNL1     -0.3863
     30 O         -2.533695   -3.240659   -0.352033 O.3        1 UNL1     -0.3829
     31 H         0.54991   -1.923097   1.760688 H        1 UNL1     0.0937
     32 H         0.0   0.0   0.0 H        1 UNL1     0.0671
     33 H         -1.880265   -1.095795   -1.476158 H        1 UNL1     0.0649
     34 H         -3.891753   -1.731731   -0.050782 H        1 UNL1     0.0683
     35 H         -3.305984   -2.924341   2.010481 H        1 UNL1     0.1085
     36 H         -4.95854   -2.944295   3.253007 H        1 UNL1     0.0691
     37 H         -2.834475   0.606371   4.482362 H        1 UNL1     0.0691
     38 H         -3.534853   -1.241088   8.939826 H        1 UNL1     0.0385
     39 H         -5.100097   -0.812118   9.657138 H        1 UNL1     0.0385
     40 H         -3.795665   1.181515   8.824532 H        1 UNL1     0.0789
     41 H         -5.227906   2.803147   9.511146 H        1 UNL1     0.0623
     42 H         -7.396217   3.96486   9.406112 H        1 UNL1     0.0654
     43 H         -8.723715   1.236946   6.365451 H        1 UNL1     0.0654
     44 H         -6.580505   0.092555   6.420025 H        1 UNL1     0.0623
     45 H         -9.408114   3.927934   7.142207 H        1 UNL1     0.2921
     46 H         -5.788647   -3.814824   6.403126 H        1 UNL1     0.2922
     47 H         0.48378   0.276925   2.271259 H        1 UNL1     0.2126
     48 H         1.170556   -1.788987   -0.470338 H        1 UNL1     0.2101
     49 H         -3.00272   0.499244   0.511644 H        1 UNL1     0.2100
     50 H         -1.58711   -3.235003   -0.604337 H        1 UNL1     0.2102
@<TRIPOS>BOND
     1     1     2    1
     2     1     6    1
     3     2     3    1
     4     3     4    1
     5     3    29    1
     6     3    33    1
     7     4     5    1
     8     5     6    1
     9     5     7    1
    10     5    35    1
    11     7     8    1
    12     8     9   ar
    13     8    13   ar
    14     9    10   ar
    15     9    36    1
    16    10    11   ar
    17    10    26    1
    18    11    12   ar
    19    11    14    1
    20    12    13   ar
    21    12    17    1
    22    13    37    1
    23    14    15    1
    24    14    25    2
    25    15    16    1
    26    15    38    1
    27    15    39    1
    28    16    17    1
    29    16    18    1
    30    16    40    1
    31    18    19   ar
    32    18    23   ar
    33    19    20   ar
    34    19    41    1
    35    20    21   ar
    36    20    42    1
    37    21    22   ar
    38    21    24    1
    39    22    23   ar
    40    22    43    1
    41    23    44    1
    42    24    45    1
    43    26    46    1
    44    27    47    1
    45    28    48    1
    46    29    49    1
    47    30    50    1
    48     1    31    1
    49     1    27    1
    50     2    32    1
    51     2    28    1
    52     4    34    1
    53     4    30    1
