@<TRIPOS>MOLECULE
*****
 50 53 0 0 0
SMALL
GASTEIGER

@<TRIPOS>ATOM
     1 C         -0.339185   -1.333021   1.696707 C.3        1 UNL1     0.1889
     2 C         -0.466294   -0.97437   0.191664 C.3        1 UNL1     0.1342
     3 C         -1.906339   -0.954686   -0.343449 C.3        1 UNL1     0.1174
     4 C         -2.797422   -2.012982   0.311608 C.3        1 UNL1     0.1456
     5 C         -2.648003   -2.044213   1.84362 C.3        1 UNL1     0.2326
     6 O         -1.284396   -2.268513   2.194527 O.3        1 UNL1     -0.3076
     7 O         -3.219616   -0.897341   2.498803 O.3        1 UNL1     -0.4605
     8 C         -3.732092   -1.115402   3.765036 C.ar        1 UNL1     0.1310
     9 C         -4.553007   -2.186653   4.133573 C.ar        1 UNL1     0.0226
     10 C         -5.008527   -2.330034   5.449569 C.ar        1 UNL1     0.1343
     11 C         -4.634315   -1.417777   6.435264 C.ar        1 UNL1     0.1007
     12 C         -3.848507   -0.321309   6.07051 C.ar        1 UNL1     0.1389
     13 C         -3.392786   -0.175918   4.746648 C.ar        1 UNL1     0.0229
     14 C         -5.017718   -1.567256   7.858223 C.2        1 UNL1     0.1740
     15 C         -4.346725   -0.624905   8.813887 C.3        1 UNL1     0.0520
     16 C         -4.271315   0.749134   8.162514 C.3        1 UNL1     0.1322
     17 O         -3.511058   0.693831   6.935314 O.3        1 UNL1     -0.4828
     18 C         -5.627783   1.447051   8.037495 C.ar        1 UNL1     -0.0067
     19 C         -6.001687   2.01812   6.803683 C.ar        1 UNL1     -0.0516
     20 C         -7.21419   2.704697   6.667996 C.ar        1 UNL1     -0.0198
     21 C         -8.056242   2.833174   7.758073 C.ar        1 UNL1     0.1169
     22 C         -7.731119   2.252972   8.977294 C.ar        1 UNL1     -0.0198
     23 C         -6.527203   1.5505   9.108353 C.ar        1 UNL1     -0.0516
     24 O         -9.211034   3.541158   7.598032 O.3        1 UNL1     -0.5068
     25 O         -5.770416   -2.447617   8.266751 O.2        1 UNL1     -0.2917
     26 O         -5.807266   -3.396438   5.743478 O.3        1 UNL1     -0.5058
     27 O         -0.230848   -0.198127   2.541139 O.3        1 UNL1     -0.3648
     28 O         0.261679   -1.952821   -0.573448 O.3        1 UNL1     -0.3841
     29 O         -2.45905   0.360702   -0.26346 O.3        1 UNL1     -0.3863
     30 O         -2.453943   -3.313222   -0.214785 O.3        1 UNL1     -0.3829
     31 H         0.619424   -1.84983   1.815259 H        1 UNL1     0.0937
     32 H         0.0   0.0   0.0 H        1 UNL1     0.0671
     33 H         -1.86874   -1.190632   -1.416126 H        1 UNL1     0.0649
     34 H         -3.846529   -1.829888   0.054214 H        1 UNL1     0.0683
     35 H         -3.206428   -2.93909   2.145671 H        1 UNL1     0.1085
     36 H         -4.833266   -2.959796   3.426588 H        1 UNL1     0.0691
     37 H         -2.783128   0.68718   4.48805 H        1 UNL1     0.0691
     38 H         -3.346157   -1.01951   9.02047 H        1 UNL1     0.0385
     39 H         -4.908253   -0.607116   9.754178 H        1 UNL1     0.0385
     40 H         -3.675003   1.389735   8.826263 H        1 UNL1     0.0789
     41 H         -5.353966   1.938965   5.935442 H        1 UNL1     0.0623
     42 H         -7.485776   3.150885   5.714493 H        1 UNL1     0.0654
     43 H         -8.390202   2.334613   9.833363 H        1 UNL1     0.0654
     44 H         -6.31009   1.100964   10.072523 H        1 UNL1     0.0623
     45 H         -8.980985   4.450821   7.348416 H        1 UNL1     0.2921
     46 H         -5.407093   -3.912266   6.461249 H        1 UNL1     0.2922
     47 H         0.512008   0.355974   2.263656 H        1 UNL1     0.2126
     48 H         1.19725   -1.879693   -0.303091 H        1 UNL1     0.2101
     49 H         -2.017292   0.943634   -0.901295 H        1 UNL1     0.2100
     50 H         -2.691177   -3.326013   -1.16519 H        1 UNL1     0.2102
@<TRIPOS>BOND
     1     1     2    1
     2     1     6    1
     3     2     3    1
     4     3     4    1
     5     3    29    1
     6     3    33    1
     7     4     5    1
     8     5     6    1
     9     5     7    1
    10     5    35    1
    11     7     8    1
    12     8     9   ar
    13     8    13   ar
    14     9    10   ar
    15     9    36    1
    16    10    11   ar
    17    10    26    1
    18    11    12   ar
    19    11    14    1
    20    12    13   ar
    21    12    17    1
    22    13    37    1
    23    14    15    1
    24    14    25    2
    25    15    16    1
    26    15    38    1
    27    15    39    1
    28    16    17    1
    29    16    18    1
    30    16    40    1
    31    18    19   ar
    32    18    23   ar
    33    19    20   ar
    34    19    41    1
    35    20    21   ar
    36    20    42    1
    37    21    22   ar
    38    21    24    1
    39    22    23   ar
    40    22    43    1
    41    23    44    1
    42    24    45    1
    43    26    46    1
    44    27    47    1
    45    28    48    1
    46    29    49    1
    47    30    50    1
    48     1    31    1
    49     1    27    1
    50     2    32    1
    51     2    28    1
    52     4    34    1
    53     4    30    1
