@<TRIPOS>MOLECULE
*****
 50 53 0 0 0
SMALL
GASTEIGER

@<TRIPOS>ATOM
     1 C         -0.332336   -1.328269   1.701781 C.3        1 UNL1     0.1889
     2 C         -0.462528   -0.975374   0.195642 C.3        1 UNL1     0.1342
     3 C         -1.903269   -0.96279   -0.337812 C.3        1 UNL1     0.1174
     4 C         -2.789728   -2.022   0.322022 C.3        1 UNL1     0.1456
     5 C         -2.638382   -2.047303   1.853955 C.3        1 UNL1     0.2326
     6 O         -1.273556   -2.265425   2.204014 O.3        1 UNL1     -0.3076
     7 O         -3.213377   -0.900215   2.505792 O.3        1 UNL1     -0.4605
     8 C         -3.723558   -1.115679   3.773395 C.ar        1 UNL1     0.1310
     9 C         -4.540143   -2.188597   4.146673 C.ar        1 UNL1     0.0226
     10 C         -4.99358   -2.329001   5.463709 C.ar        1 UNL1     0.1343
     11 C         -4.621514   -1.411935   6.445746 C.ar        1 UNL1     0.1007
     12 C         -3.840121   -0.313915   6.076204 C.ar        1 UNL1     0.1389
     13 C         -3.386499   -0.171528   4.751295 C.ar        1 UNL1     0.0229
     14 C         -5.002685   -1.5578   7.869679 C.2        1 UNL1     0.1740
     15 C         -4.333985   -0.60967   8.821225 C.3        1 UNL1     0.0520
     16 C         -4.264332   0.762336   8.164943 C.3        1 UNL1     0.1322
     17 O         -3.505333   0.705474   6.937035 O.3        1 UNL1     -0.4828
     18 C         -5.623471   1.454888   8.039098 C.ar        1 UNL1     -0.0067
     19 C         -6.002085   2.017804   6.802979 C.ar        1 UNL1     -0.0516
     20 C         -7.217244   2.699452   6.666206 C.ar        1 UNL1     -0.0198
     21 C         -8.057305   2.831095   7.757442 C.ar        1 UNL1     0.1169
     22 C         -7.727472   2.258797   8.979131 C.ar        1 UNL1     -0.0198
     23 C         -6.520855   1.5612   9.111382 C.ar        1 UNL1     -0.0516
     24 O         -9.214882   3.534212   7.596068 O.3        1 UNL1     -0.5068
     25 O         -5.751699   -2.439441   8.282197 O.2        1 UNL1     -0.2917
     26 O         -5.788096   -3.397253   5.762316 O.3        1 UNL1     -0.5058
     27 O         -0.227117   -0.190029   2.542094 O.3        1 UNL1     -0.3648
     28 O         0.268084   -1.953863   -0.566901 O.3        1 UNL1     -0.3841
     29 O         -2.460653   0.350859   -0.26178 O.3        1 UNL1     -0.3863
     30 O         -2.442158   -3.322828   -0.200214 O.3        1 UNL1     -0.3829
     31 H         0.628282   -1.841181   1.820999 H        1 UNL1     0.0937
     32 H         0.0   0.0   0.0 H        1 UNL1     0.0671
     33 H         -1.866084   -1.202367   -1.409699 H        1 UNL1     0.0649
     34 H         -3.839797   -1.843615   0.065244 H        1 UNL1     0.0683
     35 H         -3.193199   -2.943131   2.159814 H        1 UNL1     0.1085
     36 H         -4.818432   -2.96523   3.442743 H        1 UNL1     0.0691
     37 H         -2.780284   0.69286   4.488939 H        1 UNL1     0.0691
     38 H         -3.331747   -0.999917   9.027994 H        1 UNL1     0.0385
     39 H         -4.894459   -0.590611   9.76212 H        1 UNL1     0.0385
     40 H         -3.669562   1.407422   8.825724 H        1 UNL1     0.0789
     41 H         -5.356031   1.936049   5.933738 H        1 UNL1     0.0623
     42 H         -7.492488   3.1394   5.710854 H        1 UNL1     0.0654
     43 H         -8.384925   2.342933   9.836212 H        1 UNL1     0.0654
     44 H         -6.300048   1.117777   10.077543 H        1 UNL1     0.0623
     45 H         -8.98868   4.44175   7.335445 H        1 UNL1     0.2921
     46 H         -5.384513   -3.909878   6.480472 H        1 UNL1     0.2922
     47 H         0.515937   0.363665   2.264327 H        1 UNL1     0.2126
     48 H         1.200958   -1.888075   -0.285567 H        1 UNL1     0.2101
     49 H         -2.02165   0.933186   -0.902065 H        1 UNL1     0.2100
     50 H         -2.675251   -3.337893   -1.151609 H        1 UNL1     0.2102
@<TRIPOS>BOND
     1     1     2    1
     2     1     6    1
     3     2     3    1
     4     3     4    1
     5     3    29    1
     6     3    33    1
     7     4     5    1
     8     5     6    1
     9     5     7    1
    10     5    35    1
    11     7     8    1
    12     8     9   ar
    13     8    13   ar
    14     9    10   ar
    15     9    36    1
    16    10    11   ar
    17    10    26    1
    18    11    12   ar
    19    11    14    1
    20    12    13   ar
    21    12    17    1
    22    13    37    1
    23    14    15    1
    24    14    25    2
    25    15    16    1
    26    15    38    1
    27    15    39    1
    28    16    17    1
    29    16    18    1
    30    16    40    1
    31    18    19   ar
    32    18    23   ar
    33    19    20   ar
    34    19    41    1
    35    20    21   ar
    36    20    42    1
    37    21    22   ar
    38    21    24    1
    39    22    23   ar
    40    22    43    1
    41    23    44    1
    42    24    45    1
    43    26    46    1
    44    27    47    1
    45    28    48    1
    46    29    49    1
    47    30    50    1
    48     1    31    1
    49     1    27    1
    50     2    32    1
    51     2    28    1
    52     4    34    1
    53     4    30    1
