@<TRIPOS>MOLECULE
*****
 50 53 0 0 0
SMALL
GASTEIGER

@<TRIPOS>ATOM
     1 C         -0.332562   -1.328876   1.701263 C.3        1 UNL1     0.1889
     2 C         -0.462248   -0.975601   0.195169 C.3        1 UNL1     0.1342
     3 C         -1.902768   -0.963401   -0.33889 C.3        1 UNL1     0.1174
     4 C         -2.789113   -2.023127   0.320269 C.3        1 UNL1     0.1456
     5 C         -2.638405   -2.048809   1.852258 C.3        1 UNL1     0.2326
     6 O         -1.273646   -2.266524   2.202832 O.3        1 UNL1     -0.3076
     7 O         -3.214101   -0.90212   2.504177 O.3        1 UNL1     -0.4605
     8 C         -3.724737   -1.118133   3.771504 C.ar        1 UNL1     0.1310
     9 C         -4.541082   -2.19146   4.144132 C.ar        1 UNL1     0.0226
     10 C         -4.995023   -2.332406   5.460936 C.ar        1 UNL1     0.1343
     11 C         -4.623713   -1.415481   6.443391 C.ar        1 UNL1     0.1007
     12 C         -3.842572   -0.317066   6.074491 C.ar        1 UNL1     0.1389
     13 C         -3.388443   -0.174134   4.749814 C.ar        1 UNL1     0.0229
     14 C         -5.005432   -1.561891   7.867121 C.2        1 UNL1     0.1740
     15 C         -4.337486   -0.613784   8.819218 C.3        1 UNL1     0.0520
     16 C         -4.268065   0.758434   8.163355 C.3        1 UNL1     0.1322
     17 O         -3.508527   0.702203   6.935752 O.3        1 UNL1     -0.4828
     18 C         -5.627408   1.450517   8.037133 C.ar        1 UNL1     -0.0067
     19 C         -6.004923   2.01528   6.80152 C.ar        1 UNL1     -0.0516
     20 C         -7.220268   2.696548   6.664512 C.ar        1 UNL1     -0.0198
     21 C         -8.061612   2.825977   7.755024 C.ar        1 UNL1     0.1169
     22 C         -7.732857   2.251832   8.976137 C.ar        1 UNL1     -0.0198
     23 C         -6.526041   1.554618   9.108588 C.ar        1 UNL1     -0.0516
     24 O         -9.219359   3.528784   7.593514 O.3        1 UNL1     -0.5068
     25 O         -5.754293   -2.443928   8.279072 O.2        1 UNL1     -0.2917
     26 O         -5.789269   -3.401038   5.758904 O.3        1 UNL1     -0.5058
     27 O         -0.22812   -0.190835   2.541943 O.3        1 UNL1     -0.3648
     28 O         0.269049   -1.953602   -0.567342 O.3        1 UNL1     -0.3841
     29 O         -2.460672   0.35002   -0.262721 O.3        1 UNL1     -0.3863
     30 O         -2.440839   -3.323678   -0.202189 O.3        1 UNL1     -0.3829
     31 H         0.628196   -1.841465   1.820742 H        1 UNL1     0.0937
     32 H         0.0   0.0   0.0 H        1 UNL1     0.0671
     33 H         -1.865042   -1.202659   -1.410828 H        1 UNL1     0.0649
     34 H         -3.839139   -1.845059   0.063097 H        1 UNL1     0.0683
     35 H         -3.193018   -2.94493   2.157628 H        1 UNL1     0.1085
     36 H         -4.818785   -2.967997   3.439864 H        1 UNL1     0.0691
     37 H         -2.782438   0.690553   4.48796 H        1 UNL1     0.0691
     38 H         -3.335191   -1.003718   9.0263 H        1 UNL1     0.0385
     39 H         -4.898365   -0.5952   9.759882 H        1 UNL1     0.0385
     40 H         -3.673814   1.403554   8.824571 H        1 UNL1     0.0789
     41 H         -5.357858   1.935276   5.932867 H        1 UNL1     0.0623
     42 H         -7.494665   3.137931   5.709578 H        1 UNL1     0.0654
     43 H         -8.391308   2.33423   9.83262 H        1 UNL1     0.0654
     44 H         -6.306092   1.109715   10.074263 H        1 UNL1     0.0623
     45 H         -8.993318   4.436862   7.334638 H        1 UNL1     0.2921
     46 H         -5.385799   -3.913717   6.477085 H        1 UNL1     0.2922
     47 H         0.514845   0.363213   2.264648 H        1 UNL1     0.2126
     48 H         1.20178   -1.887547   -0.285595 H        1 UNL1     0.2101
     49 H         -2.021615   0.932692   -0.902655 H        1 UNL1     0.2100
     50 H         -2.673524   -3.338559   -1.153687 H        1 UNL1     0.2102
@<TRIPOS>BOND
     1     1     2    1
     2     1     6    1
     3     2     3    1
     4     3     4    1
     5     3    29    1
     6     3    33    1
     7     4     5    1
     8     5     6    1
     9     5     7    1
    10     5    35    1
    11     7     8    1
    12     8     9   ar
    13     8    13   ar
    14     9    10   ar
    15     9    36    1
    16    10    11   ar
    17    10    26    1
    18    11    12   ar
    19    11    14    1
    20    12    13   ar
    21    12    17    1
    22    13    37    1
    23    14    15    1
    24    14    25    2
    25    15    16    1
    26    15    38    1
    27    15    39    1
    28    16    17    1
    29    16    18    1
    30    16    40    1
    31    18    19   ar
    32    18    23   ar
    33    19    20   ar
    34    19    41    1
    35    20    21   ar
    36    20    42    1
    37    21    22   ar
    38    21    24    1
    39    22    23   ar
    40    22    43    1
    41    23    44    1
    42    24    45    1
    43    26    46    1
    44    27    47    1
    45    28    48    1
    46    29    49    1
    47    30    50    1
    48     1    31    1
    49     1    27    1
    50     2    32    1
    51     2    28    1
    52     4    34    1
    53     4    30    1
