@<TRIPOS>MOLECULE
*****
 50 53 0 0 0
SMALL
GASTEIGER

@<TRIPOS>ATOM
     1 C         -1.955042   0.967139   0.115136 C.3        1 UNL1     0.1889
     2 C         -0.545599   0.657987   0.687704 C.3        1 UNL1     0.1342
     3 C         -0.546749   0.027973   2.08897 C.3        1 UNL1     0.1174
     4 C         -1.679901   0.552296   2.974503 C.3        1 UNL1     0.1456
     5 C         -3.035674   0.576783   2.245365 C.3        1 UNL1     0.2326
     6 O         -2.936558   1.364661   1.06118 O.3        1 UNL1     -0.3076
     7 O         -3.583338   -0.733057   2.009349 O.3        1 UNL1     -0.4605
     8 C         -2.988207   -1.772634   2.701178 C.ar        1 UNL1     0.1310
     9 C         -3.525122   -3.055226   2.856031 C.ar        1 UNL1     0.0226
     10 C         -2.835679   -4.047996   3.562415 C.ar        1 UNL1     0.1343
     11 C         -1.58051   -3.788937   4.111306 C.ar        1 UNL1     0.1007
     12 C         -1.052432   -2.500068   3.998467 C.ar        1 UNL1     0.1389
     13 C         -1.747051   -1.501264   3.290423 C.ar        1 UNL1     0.0229
     14 C         -0.771273   -4.824269   4.794955 C.2        1 UNL1     0.1740
     15 C         0.639456   -4.433132   5.124205 C.3        1 UNL1     0.0520
     16 C         0.638264   -2.99074   5.611504 C.3        1 UNL1     0.1322
     17 O         0.124063   -2.10553   4.592155 O.3        1 UNL1     -0.4828
     18 C         0.001634   -2.807014   6.991239 C.ar        1 UNL1     -0.0067
     19 C         -0.078865   -1.515053   7.550319 C.ar        1 UNL1     -0.0516
     20 C         -0.611895   -1.317964   8.829771 C.ar        1 UNL1     -0.0198
     21 C         -1.060019   -2.403088   9.561562 C.ar        1 UNL1     0.1169
     22 C         -1.024767   -3.683479   9.024724 C.ar        1 UNL1     -0.0198
     23 C         -0.508782   -3.878588   7.737966 C.ar        1 UNL1     -0.0516
     24 O         -1.537793   -2.176989   10.818945 O.3        1 UNL1     -0.5068
     25 O         -1.176948   -5.962087   5.016954 O.2        1 UNL1     -0.2917
     26 O         -3.414837   -5.277939   3.678178 O.3        1 UNL1     -0.5058
     27 O         -2.444775   -0.039942   -0.755917 O.3        1 UNL1     -0.3648
     28 O         0.192588   1.891075   0.773026 O.3        1 UNL1     -0.3841
     29 O         -0.525793   -1.398356   2.003644 O.3        1 UNL1     -0.3863
     30 O         -1.3614   1.892815   3.407235 O.3        1 UNL1     -0.3829
     31 H         -1.845746   1.84854   -0.526164 H        1 UNL1     0.0937
     32 H         0.0   0.0   0.0 H        1 UNL1     0.0671
     33 H         0.39573   0.304655   2.581819 H        1 UNL1     0.0649
     34 H         -1.765385   -0.063868   3.876409 H        1 UNL1     0.0683
     35 H         -3.696656   1.117816   2.934035 H        1 UNL1     0.1085
     36 H         -4.470892   -3.335687   2.405497 H        1 UNL1     0.0691
     37 H         -1.314859   -0.505552   3.217892 H        1 UNL1     0.0691
     38 H         1.234725   -4.541085   4.211227 H        1 UNL1     0.0385
     39 H         1.037331   -5.123695   5.875601 H        1 UNL1     0.0385
     40 H         1.68748   -2.689285   5.733123 H        1 UNL1     0.0789
     41 H         0.274557   -0.648074   6.999781 H        1 UNL1     0.0623
     42 H         -0.657602   -0.31827   9.254662 H        1 UNL1     0.0654
     43 H         -1.386893   -4.538412   9.583173 H        1 UNL1     0.0654
     44 H         -0.50623   -4.891013   7.34575 H        1 UNL1     0.0623
     45 H         -2.504875   -2.26115   10.799299 H        1 UNL1     0.2921
     46 H         -4.290292   -5.186172   4.086306 H        1 UNL1     0.2922
     47 H         -1.98556   -0.875699   -0.593156 H        1 UNL1     0.2126
     48 H         -0.255408   2.439272   1.445718 H        1 UNL1     0.2101
     49 H         -1.28779   -1.76851   2.477078 H        1 UNL1     0.2100
     50 H         -0.913537   2.350547   2.665876 H        1 UNL1     0.2102
@<TRIPOS>BOND
     1     1     2    1
     2     1     6    1
     3     2     3    1
     4     3     4    1
     5     3    29    1
     6     3    33    1
     7     4     5    1
     8     5     6    1
     9     5     7    1
    10     5    35    1
    11     7     8    1
    12     8     9   ar
    13     8    13   ar
    14     9    10   ar
    15     9    36    1
    16    10    11   ar
    17    10    26    1
    18    11    12   ar
    19    11    14    1
    20    12    13   ar
    21    12    17    1
    22    13    37    1
    23    14    15    1
    24    14    25    2
    25    15    16    1
    26    15    38    1
    27    15    39    1
    28    16    17    1
    29    16    18    1
    30    16    40    1
    31    18    19   ar
    32    18    23   ar
    33    19    20   ar
    34    19    41    1
    35    20    21   ar
    36    20    42    1
    37    21    22   ar
    38    21    24    1
    39    22    23   ar
    40    22    43    1
    41    23    44    1
    42    24    45    1
    43    26    46    1
    44    27    47    1
    45    28    48    1
    46    29    49    1
    47    30    50    1
    48     1    31    1
    49     1    27    1
    50     2    32    1
    51     2    28    1
    52     4    34    1
    53     4    30    1
