@<TRIPOS>MOLECULE
*****
 50 53 0 0 0
SMALL
GASTEIGER

@<TRIPOS>ATOM
     1 C         -0.331039   -1.335828   1.696107 C.3        1 UNL1     0.1889
     2 C         -0.46349   -0.975663   0.191887 C.3        1 UNL1     0.1342
     3 C         -1.905179   -0.958629   -0.338873 C.3        1 UNL1     0.1174
     4 C         -2.79187   -2.019745   0.317579 C.3        1 UNL1     0.1456
     5 C         -2.637775   -2.052473   1.849097 C.3        1 UNL1     0.2326
     6 O         -1.272611   -2.274076   2.195635 O.3        1 UNL1     -0.3076
     7 O         -3.210032   -0.907699   2.507378 O.3        1 UNL1     -0.4605
     8 C         -3.7182   -1.12845   3.77488 C.ar        1 UNL1     0.1310
     9 C         -4.535556   -2.202017   4.144587 C.ar        1 UNL1     0.0226
     10 C         -4.986788   -2.348019   5.461772 C.ar        1 UNL1     0.1343
     11 C         -4.611698   -1.436093   6.447438 C.ar        1 UNL1     0.1007
     12 C         -3.829495   -0.337393   6.08165 C.ar        1 UNL1     0.1389
     13 C         -3.378089   -0.189372   4.756601 C.ar        1 UNL1     0.0229
     14 C         -4.990479   -1.588156   7.871361 C.2        1 UNL1     0.1740
     15 C         -4.318769   -0.645421   8.826142 C.3        1 UNL1     0.0520
     16 C         -4.248454   0.729568   8.176206 C.3        1 UNL1     0.1322
     17 O         -3.491766   0.677476   6.946662 O.3        1 UNL1     -0.4828
     18 C         -5.606882   1.424532   8.056104 C.ar        1 UNL1     -0.0067
     19 C         -5.985795   1.996224   6.824111 C.ar        1 UNL1     -0.0516
     20 C         -7.200265   2.68019   6.692896 C.ar        1 UNL1     -0.0198
     21 C         -8.039327   2.805433   7.785652 C.ar        1 UNL1     0.1169
     22 C         -7.709217   2.224512   9.003189 C.ar        1 UNL1     -0.0198
     23 C         -6.503312   1.524638   9.129783 C.ar        1 UNL1     -0.0516
     24 O         -9.196209   3.510967   7.629935 O.3        1 UNL1     -0.5068
     25 O         -5.739933   -2.470725   8.281086 O.2        1 UNL1     -0.2917
     26 O         -5.782204   -3.416599   5.756791 O.3        1 UNL1     -0.5058
     27 O         -0.222754   -0.201704   2.54158 O.3        1 UNL1     -0.3648
     28 O         0.264411   -1.951527   -0.576588 O.3        1 UNL1     -0.3841
     29 O         -2.460648   0.355395   -0.255637 O.3        1 UNL1     -0.3863
     30 O         -2.447008   -3.318563   -0.211413 O.3        1 UNL1     -0.3829
     31 H         0.6291   -1.850587   1.811156 H        1 UNL1     0.0937
     32 H         0.0   0.0   0.0 H        1 UNL1     0.0671
     33 H         -1.870267   -1.1932   -1.411943 H        1 UNL1     0.0649
     34 H         -3.842161   -1.838741   0.063559 H        1 UNL1     0.0683
     35 H         -3.193245   -2.948987   2.151743 H        1 UNL1     0.1085
     36 H         -4.816173   -2.974949   3.437515 H        1 UNL1     0.0691
     37 H         -2.771183   0.675427   4.497216 H        1 UNL1     0.0691
     38 H         -3.316686   -1.037985   9.029243 H        1 UNL1     0.0385
     39 H         -4.877507   -0.630044   9.768137 H        1 UNL1     0.0385
     40 H         -3.651613   1.370733   8.838933 H        1 UNL1     0.0789
     41 H         -5.340509   1.919593   5.953833 H        1 UNL1     0.0623
     42 H         -7.475734   3.1269   5.740752 H        1 UNL1     0.0654
     43 H         -8.365908   2.303619   9.861332 H        1 UNL1     0.0654
     44 H         -6.282275   1.074442   10.092753 H        1 UNL1     0.0623
     45 H         -8.968988   4.421452   7.380727 H        1 UNL1     0.2921
     46 H         -5.378698   -3.932371   6.472734 H        1 UNL1     0.2922
     47 H         0.518847   0.353716   2.26338 H        1 UNL1     0.2126
     48 H         1.200621   -1.876586   -0.308955 H        1 UNL1     0.2101
     49 H         -2.022141   0.940101   -0.894092 H        1 UNL1     0.2100
     50 H         -2.687069   -3.330756   -1.161116 H        1 UNL1     0.2102
@<TRIPOS>BOND
     1     1     2    1
     2     1     6    1
     3     2     3    1
     4     3     4    1
     5     3    29    1
     6     3    33    1
     7     4     5    1
     8     5     6    1
     9     5     7    1
    10     5    35    1
    11     7     8    1
    12     8     9   ar
    13     8    13   ar
    14     9    10   ar
    15     9    36    1
    16    10    11   ar
    17    10    26    1
    18    11    12   ar
    19    11    14    1
    20    12    13   ar
    21    12    17    1
    22    13    37    1
    23    14    15    1
    24    14    25    2
    25    15    16    1
    26    15    38    1
    27    15    39    1
    28    16    17    1
    29    16    18    1
    30    16    40    1
    31    18    19   ar
    32    18    23   ar
    33    19    20   ar
    34    19    41    1
    35    20    21   ar
    36    20    42    1
    37    21    22   ar
    38    21    24    1
    39    22    23   ar
    40    22    43    1
    41    23    44    1
    42    24    45    1
    43    26    46    1
    44    27    47    1
    45    28    48    1
    46    29    49    1
    47    30    50    1
    48     1    31    1
    49     1    27    1
    50     2    32    1
    51     2    28    1
    52     4    34    1
    53     4    30    1
