@<TRIPOS>MOLECULE
*****
 50 53 0 0 0
SMALL
GASTEIGER

@<TRIPOS>ATOM
     1 C         -1.160255   -0.808967   -1.664387 C.3        1 UNL1     0.1889
     2 C         0.052246   -0.023969   -1.095563 C.3        1 UNL1     0.1342
     3 C         0.190174   1.412723   -1.622208 C.3        1 UNL1     0.1174
     4 C         -0.249963   1.554766   -3.081393 C.3        1 UNL1     0.1456
     5 C         -1.594821   0.860013   -3.362526 C.3        1 UNL1     0.2326
     6 O         -1.512886   -0.518806   -3.008951 O.3        1 UNL1     -0.3076
     7 O         -2.721489   1.530437   -2.768832 O.3        1 UNL1     -0.4605
     8 C         -3.932439   1.372061   -3.418482 C.ar        1 UNL1     0.1310
     9 C         -4.131937   1.481889   -4.798858 C.ar        1 UNL1     0.0226
     10 C         -5.397303   1.286492   -5.365047 C.ar        1 UNL1     0.1343
     11 C         -6.490217   0.952745   -4.566303 C.ar        1 UNL1     0.1007
     12 C         -6.311925   0.880585   -3.182183 C.ar        1 UNL1     0.1389
     13 C         -5.040055   1.0797   -2.612858 C.ar        1 UNL1     0.0229
     14 C         -7.830926   0.653166   -5.120294 C.2        1 UNL1     0.1740
     15 C         -8.826845   0.097053   -4.145391 C.3        1 UNL1     0.0520
     16 C         -8.672169   0.836925   -2.823792 C.3        1 UNL1     0.1322
     17 O         -7.339428   0.665688   -2.29318 O.3        1 UNL1     -0.4828
     18 C         -9.154785   2.288699   -2.870228 C.ar        1 UNL1     -0.0067
     19 C         -10.312941   2.656705   -2.155063 C.ar        1 UNL1     -0.0516
     20 C         -10.808306   3.964791   -2.214125 C.ar        1 UNL1     -0.0198
     21 C         -10.160251   4.910109   -2.988868 C.ar        1 UNL1     0.1169
     22 C         -8.99857   4.586557   -3.677817 C.ar        1 UNL1     -0.0198
     23 C         -8.492566   3.283254   -3.604204 C.ar        1 UNL1     -0.0516
     24 O         -10.693354   6.163978   -3.052208 O.3        1 UNL1     -0.5068
     25 O         -8.111439   0.766725   -6.310631 O.2        1 UNL1     -0.2917
     26 O         -5.524941   1.409125   -6.717916 O.3        1 UNL1     -0.5058
     27 O         -2.293539   -0.794906   -0.811008 O.3        1 UNL1     -0.3648
     28 O         1.257562   -0.727424   -1.449213 O.3        1 UNL1     -0.3841
     29 O         -0.467984   2.336701   -0.753171 O.3        1 UNL1     -0.3863
     30 O         0.758723   0.977602   -3.938787 O.3        1 UNL1     -0.3829
     31 H         -0.862199   -1.862536   -1.699499 H        1 UNL1     0.0937
     32 H         0.0   0.0   0.0 H        1 UNL1     0.0671
     33 H         1.254601   1.683316   -1.58355 H        1 UNL1     0.0649
     34 H         -0.328061   2.614849   -3.346962 H        1 UNL1     0.0683
     35 H         -1.692104   0.904023   -4.454533 H        1 UNL1     0.1085
     36 H         -3.311907   1.683798   -5.47923 H        1 UNL1     0.0691
     37 H         -4.927903   1.019094   -1.532468 H        1 UNL1     0.0691
     38 H         -8.614083   -0.970818   -4.027453 H        1 UNL1     0.0385
     39 H         -9.834223   0.201064   -4.562703 H        1 UNL1     0.0385
     40 H         -9.324247   0.337106   -2.094756 H        1 UNL1     0.0789
     41 H         -10.844961   1.93081   -1.547049 H        1 UNL1     0.0623
     42 H         -11.709011   4.233214   -1.6676 H        1 UNL1     0.0654
     43 H         -8.474682   5.32294   -4.275472 H        1 UNL1     0.0654
     44 H         -7.576997   3.068268   -4.146753 H        1 UNL1     0.0623
     45 H         -11.653318   6.083333   -3.173374 H        1 UNL1     0.2921
     46 H         -6.1436   0.737862   -7.04667 H        1 UNL1     0.2922
     47 H         -2.04437   -1.074016   0.081108 H        1 UNL1     0.2126
     48 H         1.286906   -1.529363   -0.892646 H        1 UNL1     0.2101
     49 H         -1.348381   2.548361   -1.102306 H        1 UNL1     0.2100
     50 H         1.562595   1.533917   -3.875415 H        1 UNL1     0.2102
@<TRIPOS>BOND
     1     1     2    1
     2     1     6    1
     3     2     3    1
     4     3     4    1
     5     3    29    1
     6     3    33    1
     7     4     5    1
     8     5     6    1
     9     5     7    1
    10     5    35    1
    11     7     8    1
    12     8     9   ar
    13     8    13   ar
    14     9    10   ar
    15     9    36    1
    16    10    11   ar
    17    10    26    1
    18    11    12   ar
    19    11    14    1
    20    12    13   ar
    21    12    17    1
    22    13    37    1
    23    14    15    1
    24    14    25    2
    25    15    16    1
    26    15    38    1
    27    15    39    1
    28    16    17    1
    29    16    18    1
    30    16    40    1
    31    18    19   ar
    32    18    23   ar
    33    19    20   ar
    34    19    41    1
    35    20    21   ar
    36    20    42    1
    37    21    22   ar
    38    21    24    1
    39    22    23   ar
    40    22    43    1
    41    23    44    1
    42    24    45    1
    43    26    46    1
    44    27    47    1
    45    28    48    1
    46    29    49    1
    47    30    50    1
    48     1    31    1
    49     1    27    1
    50     2    32    1
    51     2    28    1
    52     4    34    1
    53     4    30    1
