@<TRIPOS>MOLECULE
*****
 50 53 0 0 0
SMALL
GASTEIGER

@<TRIPOS>ATOM
     1 C         -0.330127   -1.327106   1.703118 C.3        1 UNL1     0.1889
     2 C         -0.461546   -0.975615   0.196757 C.3        1 UNL1     0.1342
     3 C         -1.902621   -0.964761   -0.335831 C.3        1 UNL1     0.1174
     4 C         -2.787742   -2.024189   0.325448 C.3        1 UNL1     0.1456
     5 C         -2.635443   -2.048048   1.857309 C.3        1 UNL1     0.2326
     6 O         -1.270213   -2.264664   2.206724 O.3        1 UNL1     -0.3076
     7 O         -3.211056   -0.900911   2.508514 O.3        1 UNL1     -0.4605
     8 C         -3.719852   -1.115636   3.7768 C.ar        1 UNL1     0.1310
     9 C         -4.534605   -2.189273   4.152008 C.ar        1 UNL1     0.0226
     10 C         -4.98672   -2.3288   5.469592 C.ar        1 UNL1     0.1343
     11 C         -4.615109   -1.410081   6.450256 C.ar        1 UNL1     0.1007
     12 C         -3.835581   -0.311387   6.078785 C.ar        1 UNL1     0.1389
     13 C         -3.383291   -0.169885   4.753326 C.ar        1 UNL1     0.0229
     14 C         -4.99486   -1.554845   7.874681 C.2        1 UNL1     0.1740
     15 C         -4.326686   -0.60468   8.824564 C.3        1 UNL1     0.0520
     16 C         -4.259528   0.766667   8.166647 C.3        1 UNL1     0.1322
     17 O         -3.501497   0.709462   6.938157 O.3        1 UNL1     -0.4828
     18 C         -5.619749   1.457158   8.041168 C.ar        1 UNL1     -0.0067
     19 C         -6.00021   2.018118   6.804727 C.ar        1 UNL1     -0.0516
     20 C         -7.216446   2.697895   6.668209 C.ar        1 UNL1     -0.0198
     21 C         -8.05576   2.82961   7.76001 C.ar        1 UNL1     0.1169
     22 C         -7.724078   2.259183   8.982074 C.ar        1 UNL1     -0.0198
     23 C         -6.516367   1.563439   9.114096 C.ar        1 UNL1     -0.0516
     24 O         -9.214465   3.530909   7.598817 O.3        1 UNL1     -0.5068
     25 O         -5.742278   -2.437066   8.288852 O.2        1 UNL1     -0.2917
     26 O         -5.779474   -3.397827   5.770105 O.3        1 UNL1     -0.5058
     27 O         -0.225404   -0.188054   2.542393 O.3        1 UNL1     -0.3648
     28 O         0.269468   -1.95411   -0.565393 O.3        1 UNL1     -0.3841
     29 O         -2.461121   0.348459   -0.260584 O.3        1 UNL1     -0.3863
     30 O         -2.439338   -3.325156   -0.195887 O.3        1 UNL1     -0.3829
     31 H         0.631017   -1.839066   1.822191 H        1 UNL1     0.0937
     32 H         0.0   0.0   0.0 H        1 UNL1     0.0671
     33 H         -1.865876   -1.205222   -1.407535 H        1 UNL1     0.0649
     34 H         -3.838124   -1.846953   0.069155 H        1 UNL1     0.0683
     35 H         -3.189281   -2.944104   2.164271 H        1 UNL1     0.1085
     36 H         -4.812399   -2.967107   3.44921 H        1 UNL1     0.0691
     37 H         -2.778519   0.695053   4.489459 H        1 UNL1     0.0691
     38 H         -3.323723   -0.993276   9.030925 H        1 UNL1     0.0385
     39 H         -4.886384   -0.585328   9.765916 H        1 UNL1     0.0385
     40 H         -3.665104   1.413351   8.826178 H        1 UNL1     0.0789
     41 H         -5.354783   1.936272   5.935028 H        1 UNL1     0.0623
     42 H         -7.493124   3.136355   5.712587 H        1 UNL1     0.0654
     43 H         -8.380918   2.343378   9.839619 H        1 UNL1     0.0654
     44 H         -6.294111   1.12144   10.080576 H        1 UNL1     0.0623
     45 H         -8.989786   4.438273   7.336278 H        1 UNL1     0.2921
     46 H         -5.374038   -3.909638   6.487798 H        1 UNL1     0.2922
     47 H         0.517096   0.36597   2.263807 H        1 UNL1     0.2126
     48 H         1.202335   -1.887744   -0.28417 H        1 UNL1     0.2101
     49 H         -2.023022   0.930626   -0.901633 H        1 UNL1     0.2100
     50 H         -2.672996   -3.341241   -1.147127 H        1 UNL1     0.2102
@<TRIPOS>BOND
     1     1     2    1
     2     1     6    1
     3     2     3    1
     4     3     4    1
     5     3    29    1
     6     3    33    1
     7     4     5    1
     8     5     6    1
     9     5     7    1
    10     5    35    1
    11     7     8    1
    12     8     9   ar
    13     8    13   ar
    14     9    10   ar
    15     9    36    1
    16    10    11   ar
    17    10    26    1
    18    11    12   ar
    19    11    14    1
    20    12    13   ar
    21    12    17    1
    22    13    37    1
    23    14    15    1
    24    14    25    2
    25    15    16    1
    26    15    38    1
    27    15    39    1
    28    16    17    1
    29    16    18    1
    30    16    40    1
    31    18    19   ar
    32    18    23   ar
    33    19    20   ar
    34    19    41    1
    35    20    21   ar
    36    20    42    1
    37    21    22   ar
    38    21    24    1
    39    22    23   ar
    40    22    43    1
    41    23    44    1
    42    24    45    1
    43    26    46    1
    44    27    47    1
    45    28    48    1
    46    29    49    1
    47    30    50    1
    48     1    31    1
    49     1    27    1
    50     2    32    1
    51     2    28    1
    52     4    34    1
    53     4    30    1
