@<TRIPOS>MOLECULE
*****
 50 53 0 0 0
SMALL
GASTEIGER

@<TRIPOS>ATOM
     1 C         -0.325636   -1.360412   1.677512 C.3        1 UNL1     0.1889
     2 C         -0.465017   -0.977273   0.179607 C.3        1 UNL1     0.1342
     3 C         -1.909414   -0.9486   -0.343231 C.3        1 UNL1     0.1174
     4 C         -2.795417   -2.017253   0.301825 C.3        1 UNL1     0.1456
     5 C         -2.633397   -2.073459   1.831843 C.3        1 UNL1     0.2326
     6 O         -1.26702   -2.303706   2.167803 O.3        1 UNL1     -0.3076
     7 O         -3.199222   -0.9373   2.510302 O.3        1 UNL1     -0.4605
     8 C         -4.547526   -0.713482   2.296978 C.ar        1 UNL1     0.1310
     9 C         -5.187404   -0.745279   1.053255 C.ar        1 UNL1     0.0226
     10 C         -6.564911   -0.521607   0.942131 C.ar        1 UNL1     0.1343
     11 C         -7.340776   -0.284027   2.075899 C.ar        1 UNL1     0.1007
     12 C         -6.706444   -0.209204   3.318802 C.ar        1 UNL1     0.1389
     13 C         -5.32093   -0.431521   3.429967 C.ar        1 UNL1     0.0229
     14 C         -8.812553   -0.12436   2.025565 C.2        1 UNL1     0.1740
     15 C         -9.508817   -0.099959   3.354538 C.3        1 UNL1     0.0520
     16 C         -8.664784   0.713839   4.325773 C.3        1 UNL1     0.1322
     17 O         -7.355174   0.125043   4.484861 O.3        1 UNL1     -0.4828
     18 C         -8.653294   2.214417   4.024346 C.ar        1 UNL1     -0.0067
     19 C         -7.424989   2.906418   3.999529 C.ar        1 UNL1     -0.0516
     20 C         -7.38301   4.287474   3.773953 C.ar        1 UNL1     -0.0198
     21 C         -8.560261   4.987564   3.579574 C.ar        1 UNL1     0.1169
     22 C         -9.782761   4.328685   3.565084 C.ar        1 UNL1     -0.0198
     23 C         -9.823579   2.944684   3.772281 C.ar        1 UNL1     -0.0516
     24 O         -8.482971   6.337519   3.400557 O.3        1 UNL1     -0.5068
     25 O         -9.453797   -0.092854   0.978522 O.2        1 UNL1     -0.2917
     26 O         -7.127707   -0.565252   -0.300021 O.3        1 UNL1     -0.5058
     27 O         -0.209978   -0.239442   2.539392 O.3        1 UNL1     -0.3648
     28 O         0.256311   -1.943272   -0.607308 O.3        1 UNL1     -0.3841
     29 O         -2.461019   0.365417   -0.237282 O.3        1 UNL1     -0.3863
     30 O         -2.456709   -3.308813   -0.248483 O.3        1 UNL1     -0.3829
     31 H         0.633749   -1.879268   1.779731 H        1 UNL1     0.0937
     32 H         0.0   0.0   0.0 H        1 UNL1     0.0671
     33 H         -1.880727   -1.167052   -1.419881 H        1 UNL1     0.0649
     34 H         -3.846548   -1.82979   0.0561 H        1 UNL1     0.0683
     35 H         -3.189608   -2.97303   2.123872 H        1 UNL1     0.1085
     36 H         -4.649668   -0.979952   0.141176 H        1 UNL1     0.0691
     37 H         -4.850871   -0.366615   4.408908 H        1 UNL1     0.0691
     38 H         -9.611994   -1.136311   3.69344 H        1 UNL1     0.0385
     39 H         -10.512502   0.319494   3.226259 H        1 UNL1     0.0385
     40 H         -9.130173   0.61997   5.31629 H        1 UNL1     0.0789
     41 H         -6.487701   2.38117   4.158451 H        1 UNL1     0.0623
     42 H         -6.430526   4.811651   3.768998 H        1 UNL1     0.0654
     43 H         -10.709493   4.864827   3.398859 H        1 UNL1     0.0654
     44 H         -10.795101   2.460756   3.743922 H        1 UNL1     0.0623
     45 H         -8.107569   6.732468   4.204178 H        1 UNL1     0.2921
     46 H         -7.840865   -1.223077   -0.309144 H        1 UNL1     0.2922
     47 H         0.520391   0.327607   2.255003 H        1 UNL1     0.2126
     48 H         1.197648   -1.857036   -0.361993 H        1 UNL1     0.2101
     49 H         -2.030113   0.956616   -0.874932 H        1 UNL1     0.2100
     50 H         -2.701766   -3.306079   -1.196984 H        1 UNL1     0.2102
@<TRIPOS>BOND
     1     1     2    1
     2     1     6    1
     3     2     3    1
     4     3     4    1
     5     3    29    1
     6     3    33    1
     7     4     5    1
     8     5     6    1
     9     5     7    1
    10     5    35    1
    11     7     8    1
    12     8     9   ar
    13     8    13   ar
    14     9    10   ar
    15     9    36    1
    16    10    11   ar
    17    10    26    1
    18    11    12   ar
    19    11    14    1
    20    12    13   ar
    21    12    17    1
    22    13    37    1
    23    14    15    1
    24    14    25    2
    25    15    16    1
    26    15    38    1
    27    15    39    1
    28    16    17    1
    29    16    18    1
    30    16    40    1
    31    18    19   ar
    32    18    23   ar
    33    19    20   ar
    34    19    41    1
    35    20    21   ar
    36    20    42    1
    37    21    22   ar
    38    21    24    1
    39    22    23   ar
    40    22    43    1
    41    23    44    1
    42    24    45    1
    43    26    46    1
    44    27    47    1
    45    28    48    1
    46    29    49    1
    47    30    50    1
    48     1    31    1
    49     1    27    1
    50     2    32    1
    51     2    28    1
    52     4    34    1
    53     4    30    1
