@<TRIPOS>MOLECULE
*****
 50 53 0 0 0
SMALL
GASTEIGER

@<TRIPOS>ATOM
     1 C         -0.346383   -1.336694   1.692357 C.3        1 UNL1     0.1889
     2 C         -0.469514   -0.973524   0.188068 C.3        1 UNL1     0.1342
     3 C         -1.908453   -0.948144   -0.349776 C.3        1 UNL1     0.1174
     4 C         -2.8039   -2.005626   0.300627 C.3        1 UNL1     0.1456
     5 C         -2.657552   -2.041518   1.832834 C.3        1 UNL1     0.2326
     6 O         -1.295293   -2.270781   2.18576 O.3        1 UNL1     -0.3076
     7 O         -3.227081   -0.894787   2.490075 O.3        1 UNL1     -0.4605
     8 C         -3.742654   -1.114834   3.754706 C.ar        1 UNL1     0.1310
     9 C         -4.567415   -2.184687   4.118691 C.ar        1 UNL1     0.0226
     10 C         -5.02591   -2.33036   5.433401 C.ar        1 UNL1     0.1343
     11 C         -4.650949   -1.421925   6.422335 C.ar        1 UNL1     0.1007
     12 C         -3.861228   -0.326763   6.062135 C.ar        1 UNL1     0.1389
     13 C         -3.40251   -0.179059   4.739564 C.ar        1 UNL1     0.0229
     14 C         -5.037553   -1.574202   7.844131 C.2        1 UNL1     0.1740
     15 C         -4.365666   -0.636461   8.803692 C.3        1 UNL1     0.0520
     16 C         -4.28497   0.739143   8.156266 C.3        1 UNL1     0.1322
     17 O         -3.522492   0.684994   6.930393 O.3        1 UNL1     -0.4828
     18 C         -5.639145   1.441374   8.030549 C.ar        1 UNL1     -0.0067
     19 C         -6.002632   2.02993   6.801853 C.ar        1 UNL1     -0.0516
     20 C         -7.212787   2.720684   6.6664 C.ar        1 UNL1     -0.0198
     21 C         -8.062821   2.835966   7.751748 C.ar        1 UNL1     0.1169
     22 C         -7.748018   2.238573   8.965362 C.ar        1 UNL1     -0.0198
     23 C         -6.546446   1.532006   9.095905 C.ar        1 UNL1     -0.0516
     24 O         -9.215042   3.548344   7.592671 O.3        1 UNL1     -0.5068
     25 O         -5.793616   -2.453476   8.248767 O.2        1 UNL1     -0.2917
     26 O         -5.828336   -3.395225   5.722815 O.3        1 UNL1     -0.5058
     27 O         -0.236367   -0.204455   2.54013 O.3        1 UNL1     -0.3648
     28 O         0.257079   -1.951991   -0.578333 O.3        1 UNL1     -0.3841
     29 O         -2.457467   0.368633   -0.267224 O.3        1 UNL1     -0.3863
     30 O         -2.463204   -3.30541   -0.22869 O.3        1 UNL1     -0.3829
     31 H         0.610478   -1.856636   1.811338 H        1 UNL1     0.0937
     32 H         0.0   0.0   0.0 H        1 UNL1     0.0671
     33 H         -1.869459   -1.18124   -1.423026 H        1 UNL1     0.0649
     34 H         -3.851964   -1.818748   0.041709 H        1 UNL1     0.0683
     35 H         -3.21918   -2.935584   2.131329 H        1 UNL1     0.1085
     36 H         -4.848559   -2.955053   3.409032 H        1 UNL1     0.0691
     37 H         -2.789827   0.682957   4.484534 H        1 UNL1     0.0691
     38 H         -3.36666   -1.034565   9.011122 H        1 UNL1     0.0385
     39 H         -4.928967   -0.619618   9.74294 H        1 UNL1     0.0385
     40 H         -3.688077   1.37616   8.822936 H        1 UNL1     0.0789
     41 H         -5.348511   1.961327   5.937522 H        1 UNL1     0.0623
     42 H         -7.476315   3.180351   5.717047 H        1 UNL1     0.0654
     43 H         -8.413406   2.30985   9.817471 H        1 UNL1     0.0654
     44 H         -6.337475   1.068953   10.055467 H        1 UNL1     0.0623
     45 H         -8.98136   4.461555   7.35996 H        1 UNL1     0.2921
     46 H         -5.43107   -3.9142   6.439932 H        1 UNL1     0.2922
     47 H         0.508645   0.348229   2.265618 H        1 UNL1     0.2126
     48 H         1.192783   -1.880404   -0.308024 H        1 UNL1     0.2101
     49 H         -2.018488   0.950002   -0.908396 H        1 UNL1     0.2100
     50 H         -2.698626   -3.314885   -1.179584 H        1 UNL1     0.2102
@<TRIPOS>BOND
     1     1     2    1
     2     1     6    1
     3     2     3    1
     4     3     4    1
     5     3    29    1
     6     3    33    1
     7     4     5    1
     8     5     6    1
     9     5     7    1
    10     5    35    1
    11     7     8    1
    12     8     9   ar
    13     8    13   ar
    14     9    10   ar
    15     9    36    1
    16    10    11   ar
    17    10    26    1
    18    11    12   ar
    19    11    14    1
    20    12    13   ar
    21    12    17    1
    22    13    37    1
    23    14    15    1
    24    14    25    2
    25    15    16    1
    26    15    38    1
    27    15    39    1
    28    16    17    1
    29    16    18    1
    30    16    40    1
    31    18    19   ar
    32    18    23   ar
    33    19    20   ar
    34    19    41    1
    35    20    21   ar
    36    20    42    1
    37    21    22   ar
    38    21    24    1
    39    22    23   ar
    40    22    43    1
    41    23    44    1
    42    24    45    1
    43    26    46    1
    44    27    47    1
    45    28    48    1
    46    29    49    1
    47    30    50    1
    48     1    31    1
    49     1    27    1
    50     2    32    1
    51     2    28    1
    52     4    34    1
    53     4    30    1
