@<TRIPOS>MOLECULE
*****
 50 53 0 0 0
SMALL
GASTEIGER

@<TRIPOS>ATOM
     1 C         -0.592713   1.954637   -0.77388 C.3        1 UNL1     0.1889
     2 C         -0.162691   1.014601   0.384288 C.3        1 UNL1     0.1342
     3 C         -1.149645   0.952821   1.560116 C.3        1 UNL1     0.1174
     4 C         -1.843881   2.291452   1.823216 C.3        1 UNL1     0.1456
     5 C         -2.371984   2.94595   0.533602 C.3        1 UNL1     0.2326
     6 O         -1.303831   3.123554   -0.393962 O.3        1 UNL1     -0.3076
     7 O         -3.505648   2.263742   -0.032718 O.3        1 UNL1     -0.4605
     8 C         -3.243863   1.456946   -1.125456 C.ar        1 UNL1     0.1310
     9 C         -1.985216   1.258309   -1.703083 C.ar        1 UNL1     0.0226
     10 C         -1.819138   0.405555   -2.800867 C.ar        1 UNL1     0.1343
     11 C         -2.904875   -0.288401   -3.333261 C.ar        1 UNL1     0.1007
     12 C         -4.173528   -0.066612   -2.790939 C.ar        1 UNL1     0.1389
     13 C         -4.340685   0.792913   -1.688802 C.ar        1 UNL1     0.0229
     14 C         -2.772405   -1.265628   -4.438536 C.2        1 UNL1     0.1740
     15 C         -3.996765   -2.081053   -4.734466 C.3        1 UNL1     0.0520
     16 C         -5.215756   -1.174757   -4.631286 C.3        1 UNL1     0.1322
     17 O         -5.326501   -0.613305   -3.304795 O.3        1 UNL1     -0.4828
     18 C         -5.320007   -0.150891   -5.764227 C.ar        1 UNL1     -0.0067
     19 C         -4.276807   0.778125   -5.95626 C.ar        1 UNL1     -0.0516
     20 C         -4.36187   1.757937   -6.952602 C.ar        1 UNL1     -0.0198
     21 C         -5.485597   1.823708   -7.756803 C.ar        1 UNL1     0.1169
     22 C         -6.514523   0.90189   -7.613965 C.ar        1 UNL1     -0.0198
     23 C         -6.421512   -0.089542   -6.629857 C.ar        1 UNL1     -0.0516
     24 O         -5.549743   2.815067   -8.691411 O.3        1 UNL1     -0.5068
     25 O         -1.719289   -1.472123   -5.035856 O.2        1 UNL1     -0.2917
     26 O         -0.565493   0.256159   -3.318205 O.3        1 UNL1     -0.5058
     27 O         -1.232018   1.2773   -1.844063 O.3        1 UNL1     -0.3648
     28 O         1.096169   1.479551   0.905631 O.3        1 UNL1     -0.3841
     29 O         -2.072247   -0.125389   1.391588 O.3        1 UNL1     -0.3863
     30 O         -0.908858   3.194377   2.452619 O.3        1 UNL1     -0.3829
     31 H         0.329088   2.348092   -1.216097 H        1 UNL1     0.0937
     32 H         0.0   -0.0   0.0 H        1 UNL1     0.0671
     33 H         -0.577313   0.708221   2.465834 H        1 UNL1     0.0649
     34 H         -2.674511   2.150654   2.523667 H        1 UNL1     0.0683
     35 H         -2.685626   3.947242   0.854416 H        1 UNL1     0.1085
     36 H         -1.092978   1.725202   -1.300538 H        1 UNL1     0.0691
     37 H         -5.338944   0.949475   -1.285738 H        1 UNL1     0.0691
     38 H         -4.042284   -2.889696   -3.997206 H        1 UNL1     0.0385
     39 H         -3.897454   -2.529843   -5.728701 H        1 UNL1     0.0385
     40 H         -6.103534   -1.813347   -4.734119 H        1 UNL1     0.0789
     41 H         -3.388314   0.753205   -5.332072 H        1 UNL1     0.0623
     42 H         -3.556105   2.476098   -7.082976 H        1 UNL1     0.0654
     43 H         -7.392292   0.934946   -8.248267 H        1 UNL1     0.0654
     44 H         -7.239129   -0.799807   -6.553236 H        1 UNL1     0.0623
     45 H         -4.706262   2.838796   -9.171717 H        1 UNL1     0.2921
     46 H         -0.195462   1.12853   -3.52667 H        1 UNL1     0.2922
     47 H         -2.063392   1.717419   -2.069834 H        1 UNL1     0.2126
     48 H         1.13371   1.196692   1.839609 H        1 UNL1     0.2101
     49 H         -2.854418   0.019626   1.947441 H        1 UNL1     0.2100
     50 H         -0.956187   4.052899   1.983136 H        1 UNL1     0.2102
@<TRIPOS>BOND
     1     1     2    1
     2     1     6    1
     3     2     3    1
     4     3     4    1
     5     3    29    1
     6     3    33    1
     7     4     5    1
     8     5     6    1
     9     5     7    1
    10     5    35    1
    11     7     8    1
    12     8     9   ar
    13     8    13   ar
    14     9    10   ar
    15     9    36    1
    16    10    11   ar
    17    10    26    1
    18    11    12   ar
    19    11    14    1
    20    12    13   ar
    21    12    17    1
    22    13    37    1
    23    14    15    1
    24    14    25    2
    25    15    16    1
    26    15    38    1
    27    15    39    1
    28    16    17    1
    29    16    18    1
    30    16    40    1
    31    18    19   ar
    32    18    23   ar
    33    19    20   ar
    34    19    41    1
    35    20    21   ar
    36    20    42    1
    37    21    22   ar
    38    21    24    1
    39    22    23   ar
    40    22    43    1
    41    23    44    1
    42    24    45    1
    43    26    46    1
    44    27    47    1
    45    28    48    1
    46    29    49    1
    47    30    50    1
    48     1    31    1
    49     1    27    1
    50     2    32    1
    51     2    28    1
    52     4    34    1
    53     4    30    1
