@<TRIPOS>MOLECULE
*****
 50 53 0 0 0
SMALL
GASTEIGER

@<TRIPOS>ATOM
     1 C         -1.574923   -0.613136   1.38365 C.3        1 UNL1     0.1889
     2 C         -0.666284   0.46634   0.736312 C.3        1 UNL1     0.1342
     3 C         0.176952   1.276382   1.732931 C.3        1 UNL1     0.1174
     4 C         -0.544979   1.520195   3.060518 C.3        1 UNL1     0.1456
     5 C         -1.205053   0.245125   3.616272 C.3        1 UNL1     0.2326
     6 O         -2.114173   -0.289371   2.656748 O.3        1 UNL1     -0.3076
     7 O         -0.259277   -0.725134   4.101478 O.3        1 UNL1     -0.4605
     8 C         -0.67989   -2.042831   4.084503 C.ar        1 UNL1     0.1310
     9 C         0.151453   -3.160559   4.214321 C.ar        1 UNL1     0.0226
     10 C         -0.373471   -4.458327   4.201779 C.ar        1 UNL1     0.1343
     11 C         -1.746509   -4.669211   4.082886 C.ar        1 UNL1     0.1007
     12 C         -2.582436   -3.562598   3.911377 C.ar        1 UNL1     0.1389
     13 C         -2.054097   -2.257918   3.921368 C.ar        1 UNL1     0.0229
     14 C         -2.363244   -6.014417   4.147798 C.2        1 UNL1     0.1740
     15 C         -3.861455   -6.03864   4.227339 C.3        1 UNL1     0.0520
     16 C         -4.41084   -4.968606   3.293979 C.3        1 UNL1     0.1322
     17 O         -3.934543   -3.659787   3.677653 O.3        1 UNL1     -0.4828
     18 C         -4.236069   -5.29719   1.80932 C.ar        1 UNL1     -0.0067
     19 C         -5.085087   -6.247482   1.205727 C.ar        1 UNL1     -0.0516
     20 C         -4.921769   -6.605929   -0.137703 C.ar        1 UNL1     -0.0198
     21 C         -3.910801   -6.028007   -0.884549 C.ar        1 UNL1     0.1169
     22 C         -3.080006   -5.064499   -0.327529 C.ar        1 UNL1     -0.0198
     23 C         -3.254844   -4.692321   1.010743 C.ar        1 UNL1     -0.0516
     24 O         -3.758204   -6.42973   -2.17905 O.3        1 UNL1     -0.5068
     25 O         -1.712619   -7.053963   4.215 O.2        1 UNL1     -0.2917
     26 O         0.491357   -5.505605   4.331645 O.3        1 UNL1     -0.5058
     27 O         -1.005934   -1.912705   1.370982 O.3        1 UNL1     -0.3648
     28 O         -1.501406   1.398567   0.024814 O.3        1 UNL1     -0.3841
     29 O         1.466322   0.684625   1.904635 O.3        1 UNL1     -0.3863
     30 O         -1.564769   2.524466   2.867748 O.3        1 UNL1     -0.3829
     31 H         -2.46072   -0.700364   0.745031 H        1 UNL1     0.0937
     32 H         0.0   0.0   0.0 H        1 UNL1     0.0671
     33 H         0.365796   2.263318   1.287941 H        1 UNL1     0.0649
     34 H         0.158414   1.915751   3.801581 H        1 UNL1     0.0683
     35 H         -1.807018   0.605112   4.460029 H        1 UNL1     0.1085
     36 H         1.220682   -3.061386   4.366089 H        1 UNL1     0.0691
     37 H         -2.725967   -1.413261   3.78485 H        1 UNL1     0.0691
     38 H         -4.141206   -5.837413   5.266941 H        1 UNL1     0.0385
     39 H         -4.218688   -7.04024   3.964733 H        1 UNL1     0.0385
     40 H         -5.496341   -4.924095   3.455926 H        1 UNL1     0.0789
     41 H         -5.880325   -6.722212   1.773072 H        1 UNL1     0.0623
     42 H         -5.575312   -7.348728   -0.588417 H        1 UNL1     0.0654
     43 H         -2.294742   -4.594569   -0.90756 H        1 UNL1     0.0654
     44 H         -2.59452   -3.928689   1.410346 H        1 UNL1     0.0623
     45 H         -4.229584   -5.803523   -2.752097 H        1 UNL1     0.2921
     46 H         -0.010104   -6.33447   4.385785 H        1 UNL1     0.2922
     47 H         -0.986953   -2.261112   0.4687 H        1 UNL1     0.2126
     48 H         -0.915647   2.11209   -0.293782 H        1 UNL1     0.2101
     49 H         1.394614   -0.107021   2.461365 H        1 UNL1     0.2100
     50 H         -1.211767   3.19794   2.250063 H        1 UNL1     0.2102
@<TRIPOS>BOND
     1     1     2    1
     2     1     6    1
     3     2     3    1
     4     3     4    1
     5     3    29    1
     6     3    33    1
     7     4     5    1
     8     5     6    1
     9     5     7    1
    10     5    35    1
    11     7     8    1
    12     8     9   ar
    13     8    13   ar
    14     9    10   ar
    15     9    36    1
    16    10    11   ar
    17    10    26    1
    18    11    12   ar
    19    11    14    1
    20    12    13   ar
    21    12    17    1
    22    13    37    1
    23    14    15    1
    24    14    25    2
    25    15    16    1
    26    15    38    1
    27    15    39    1
    28    16    17    1
    29    16    18    1
    30    16    40    1
    31    18    19   ar
    32    18    23   ar
    33    19    20   ar
    34    19    41    1
    35    20    21   ar
    36    20    42    1
    37    21    22   ar
    38    21    24    1
    39    22    23   ar
    40    22    43    1
    41    23    44    1
    42    24    45    1
    43    26    46    1
    44    27    47    1
    45    28    48    1
    46    29    49    1
    47    30    50    1
    48     1    31    1
    49     1    27    1
    50     2    32    1
    51     2    28    1
    52     4    34    1
    53     4    30    1
