@<TRIPOS>MOLECULE
*****
 50 53 0 0 0
SMALL
GASTEIGER

@<TRIPOS>ATOM
     1 C         -0.390899   -1.380897   1.646549 C.3        1 UNL1     0.1889
     2 C         -0.492348   -0.968306   0.153426 C.3        1 UNL1     0.1342
     3 C         -1.925424   -0.894347   -0.395471 C.3        1 UNL1     0.1174
     4 C         -2.849635   -1.95157   0.213817 C.3        1 UNL1     0.1456
     5 C         -2.718088   -2.038508   1.74532 C.3        1 UNL1     0.2326
     6 O         -1.364433   -2.308732   2.102345 O.3        1 UNL1     -0.3076
     7 O         -3.268422   -0.900549   2.433434 O.3        1 UNL1     -0.4605
     8 C         -2.394006   -0.203215   3.247468 C.ar        1 UNL1     0.1310
     9 C         -1.735946   -0.726351   4.365764 C.ar        1 UNL1     0.0226
     10 C         -0.853467   0.057493   5.118574 C.ar        1 UNL1     0.1343
     11 C         -0.589159   1.377795   4.756933 C.ar        1 UNL1     0.1007
     12 C         -1.271514   1.923709   3.66645 C.ar        1 UNL1     0.1389
     13 C         -2.1608   1.136145   2.91124 C.ar        1 UNL1     0.0229
     14 C         0.397154   2.225082   5.466472 C.2        1 UNL1     0.1740
     15 C         0.718014   3.535948   4.810554 C.3        1 UNL1     0.0520
     16 C         -0.572281   4.128069   4.260565 C.3        1 UNL1     0.1322
     17 O         -1.169265   3.242247   3.28794 O.3        1 UNL1     -0.4828
     18 C         -1.53445   4.621788   5.343707 C.ar        1 UNL1     -0.0067
     19 C         -2.675861   5.361215   4.971361 C.ar        1 UNL1     -0.0516
     20 C         -3.550797   5.868008   5.939665 C.ar        1 UNL1     -0.0198
     21 C         -3.292004   5.648993   7.28089 C.ar        1 UNL1     0.1169
     22 C         -2.194333   4.896161   7.677379 C.ar        1 UNL1     -0.0198
     23 C         -1.329308   4.37358   6.708516 C.ar        1 UNL1     -0.0516
     24 O         -4.145713   6.19012   8.19673 O.3        1 UNL1     -0.5068
     25 O         0.988189   1.868388   6.482313 O.2        1 UNL1     -0.2917
     26 O         -0.244613   -0.512399   6.198438 O.3        1 UNL1     -0.5058
     27 O         -0.263933   -0.278388   2.53037 O.3        1 UNL1     -0.3648
     28 O         0.219675   -1.938188   -0.637179 O.3        1 UNL1     -0.3841
     29 O         -2.446296   0.431023   -0.276227 O.3        1 UNL1     -0.3863
     30 O         -2.532578   -3.241408   -0.353179 O.3        1 UNL1     -0.3829
     31 H         0.55326   -1.925323   1.757203 H        1 UNL1     0.0937
     32 H         0.0   0.0   0.0 H        1 UNL1     0.0671
     33 H         -1.881739   -1.094627   -1.475146 H        1 UNL1     0.0649
     34 H         -3.890966   -1.733581   -0.047932 H        1 UNL1     0.0683
     35 H         -3.301796   -2.928826   2.010834 H        1 UNL1     0.1085
     36 H         -1.856002   -1.761674   4.665452 H        1 UNL1     0.0691
     37 H         -2.680399   1.58514   2.06749 H        1 UNL1     0.0691
     38 H         1.435402   3.337442   4.007138 H        1 UNL1     0.0385
     39 H         1.197444   4.195445   5.541983 H        1 UNL1     0.0385
     40 H         -0.298424   5.022853   3.68534 H        1 UNL1     0.0789
     41 H         -2.896168   5.554602   3.925552 H        1 UNL1     0.0623
     42 H         -4.421114   6.4468   5.6404 H        1 UNL1     0.0654
     43 H         -1.990538   4.705852   8.724355 H        1 UNL1     0.0654
     44 H         -0.487415   3.781136   7.053584 H        1 UNL1     0.0623
     45 H         -4.633274   6.914002   7.771293 H        1 UNL1     0.2921
     46 H         0.696479   -0.276285   6.201195 H        1 UNL1     0.2922
     47 H         -1.137925   0.04191   2.793822 H        1 UNL1     0.2126
     48 H         -0.329714   -2.114384   -1.425125 H        1 UNL1     0.2101
     49 H         -3.002264   0.497033   0.516449 H        1 UNL1     0.2100
     50 H         -2.005765   -3.739215   0.305888 H        1 UNL1     0.2102
@<TRIPOS>BOND
     1     1     2    1
     2     1     6    1
     3     2     3    1
     4     3     4    1
     5     3    29    1
     6     3    33    1
     7     4     5    1
     8     5     6    1
     9     5     7    1
    10     5    35    1
    11     7     8    1
    12     8     9   ar
    13     8    13   ar
    14     9    10   ar
    15     9    36    1
    16    10    11   ar
    17    10    26    1
    18    11    12   ar
    19    11    14    1
    20    12    13   ar
    21    12    17    1
    22    13    37    1
    23    14    15    1
    24    14    25    2
    25    15    16    1
    26    15    38    1
    27    15    39    1
    28    16    17    1
    29    16    18    1
    30    16    40    1
    31    18    19   ar
    32    18    23   ar
    33    19    20   ar
    34    19    41    1
    35    20    21   ar
    36    20    42    1
    37    21    22   ar
    38    21    24    1
    39    22    23   ar
    40    22    43    1
    41    23    44    1
    42    24    45    1
    43    26    46    1
    44    27    47    1
    45    28    48    1
    46    29    49    1
    47    30    50    1
    48     1    31    1
    49     1    27    1
    50     2    32    1
    51     2    28    1
    52     4    34    1
    53     4    30    1
