@<TRIPOS>MOLECULE
*****
 50 53 0 0 0
SMALL
GASTEIGER

@<TRIPOS>ATOM
     1 C         0.908316   0.0339   1.986106 C.3        1 UNL1     0.1889
     2 C         -0.32759   0.0229   1.046768 C.3        1 UNL1     0.1342
     3 C         -1.29338   1.201392   1.24392 C.3        1 UNL1     0.1174
     4 C         -1.39432   1.648053   2.704544 C.3        1 UNL1     0.1456
     5 C         -0.015788   1.786722   3.37595 C.3        1 UNL1     0.2326
     6 O         0.692913   0.552508   3.290346 O.3        1 UNL1     -0.3076
     7 O         0.744892   2.910459   2.896469 O.3        1 UNL1     -0.4605
     8 C         1.590045   3.506689   3.81503 C.ar        1 UNL1     0.1310
     9 C         1.252363   3.836372   5.132064 C.ar        1 UNL1     0.0226
     10 C         2.186603   4.424088   5.993278 C.ar        1 UNL1     0.1343
     11 C         3.489557   4.674802   5.565149 C.ar        1 UNL1     0.1007
     12 C         3.826735   4.387693   4.239757 C.ar        1 UNL1     0.1389
     13 C         2.886413   3.799186   3.373221 C.ar        1 UNL1     0.0229
     14 C         4.540316   5.216472   6.457703 C.2        1 UNL1     0.1740
     15 C         5.932644   5.212905   5.898276 C.3        1 UNL1     0.0520
     16 C         5.863899   5.618133   4.432321 C.3        1 UNL1     0.1322
     17 O         5.046773   4.692537   3.682223 O.3        1 UNL1     -0.4828
     18 C         5.513736   7.092399   4.216338 C.ar        1 UNL1     -0.0067
     19 C         4.51407   7.437319   3.283646 C.ar        1 UNL1     -0.0516
     20 C         4.202467   8.777927   3.02745 C.ar        1 UNL1     -0.0198
     21 C         4.886898   9.780784   3.690519 C.ar        1 UNL1     0.1169
     22 C         5.853198   9.472061   4.639094 C.ar        1 UNL1     -0.0198
     23 C         6.152119   8.131213   4.908961 C.ar        1 UNL1     -0.0516
     24 O         4.582537   11.075328   3.387338 O.3        1 UNL1     -0.5068
     25 O         4.327062   5.576156   7.612535 O.2        1 UNL1     -0.2917
     26 O         1.793521   4.722245   7.265352 O.3        1 UNL1     -0.5058
     27 O         2.068773   0.588265   1.387103 O.3        1 UNL1     -0.3648
     28 O         -1.072054   -1.185796   1.286629 O.3        1 UNL1     -0.3841
     29 O         -0.970658   2.275125   0.357872 O.3        1 UNL1     -0.3863
     30 O         -2.174843   0.682569   3.442319 O.3        1 UNL1     -0.3829
     31 H         1.172697   -1.013608   2.167511 H        1 UNL1     0.0937
     32 H         0.0   0.0   -0.0 H        1 UNL1     0.0671
     33 H         -2.29627   0.866891   0.94385 H        1 UNL1     0.0649
     34 H         -1.925014   2.604518   2.767313 H        1 UNL1     0.0683
     35 H         -0.2524   1.94583   4.435468 H        1 UNL1     0.1085
     36 H         0.272875   3.615583   5.541912 H        1 UNL1     0.0691
     37 H         3.173486   3.58641   2.345695 H        1 UNL1     0.0691
     38 H         6.331644   4.199022   6.009486 H        1 UNL1     0.0385
     39 H         6.55774   5.892964   6.486963 H        1 UNL1     0.0385
     40 H         6.872333   5.494786   4.014751 H        1 UNL1     0.0789
     41 H         3.968822   6.668862   2.743436 H        1 UNL1     0.0623
     42 H         3.437872   9.031315   2.297245 H        1 UNL1     0.0654
     43 H         6.384717   10.249305   5.175089 H        1 UNL1     0.0654
     44 H         6.905165   7.926322   5.663802 H        1 UNL1     0.0623
     45 H         4.772387   11.222789   2.446631 H        1 UNL1     0.2921
     46 H         2.382876   4.281615   7.897743 H        1 UNL1     0.2922
     47 H         2.272596   0.126637   0.561745 H        1 UNL1     0.2126
     48 H         -0.483832   -1.928344   1.049249 H        1 UNL1     0.2101
     49 H         -1.181744   2.024081   -0.555481 H        1 UNL1     0.2100
     50 H         -3.091711   0.709945   3.098348 H        1 UNL1     0.2102
@<TRIPOS>BOND
     1     1     2    1
     2     1     6    1
     3     2     3    1
     4     3     4    1
     5     3    29    1
     6     3    33    1
     7     4     5    1
     8     5     6    1
     9     5     7    1
    10     5    35    1
    11     7     8    1
    12     8     9   ar
    13     8    13   ar
    14     9    10   ar
    15     9    36    1
    16    10    11   ar
    17    10    26    1
    18    11    12   ar
    19    11    14    1
    20    12    13   ar
    21    12    17    1
    22    13    37    1
    23    14    15    1
    24    14    25    2
    25    15    16    1
    26    15    38    1
    27    15    39    1
    28    16    17    1
    29    16    18    1
    30    16    40    1
    31    18    19   ar
    32    18    23   ar
    33    19    20   ar
    34    19    41    1
    35    20    21   ar
    36    20    42    1
    37    21    22   ar
    38    21    24    1
    39    22    23   ar
    40    22    43    1
    41    23    44    1
    42    24    45    1
    43    26    46    1
    44    27    47    1
    45    28    48    1
    46    29    49    1
    47    30    50    1
    48     1    31    1
    49     1    27    1
    50     2    32    1
    51     2    28    1
    52     4    34    1
    53     4    30    1
