@<TRIPOS>MOLECULE
*****
 50 53 0 0 0
SMALL
GASTEIGER

@<TRIPOS>ATOM
     1 C         -0.333624   -1.33143   1.699057 C.3        1 UNL1     0.1889
     2 C         -0.45931   -0.977461   0.192787 C.3        1 UNL1     0.1342
     3 C         -1.897973   -0.970185   -0.346343 C.3        1 UNL1     0.1174
     4 C         -2.782698   -2.033706   0.30887 C.3        1 UNL1     0.1456
     5 C         -2.637298   -2.060027   1.841361 C.3        1 UNL1     0.2326
     6 O         -1.272985   -2.272953   2.196581 O.3        1 UNL1     -0.3076
     7 O         -3.21954   -0.91599   2.492126 O.3        1 UNL1     -0.4605
     8 C         -3.733413   -1.13478   3.757667 C.ar        1 UNL1     0.1310
     9 C         -4.546778   -2.211501   4.127002 C.ar        1 UNL1     0.0226
     10 C         -5.004407   -2.355035   5.442249 C.ar        1 UNL1     0.1343
     11 C         -4.639827   -1.437292   6.426459 C.ar        1 UNL1     0.1007
     12 C         -3.861775   -0.335621   6.060754 C.ar        1 UNL1     0.1389
     13 C         -3.40394   -0.190096   4.737637 C.ar        1 UNL1     0.0229
     14 C         -5.025558   -1.586076   7.848861 C.2        1 UNL1     0.1740
     15 C         -4.36437   -0.63598   8.803689 C.3        1 UNL1     0.0520
     16 C         -4.298168   0.736908   8.148898 C.3        1 UNL1     0.1322
     17 O         -3.534467   0.684397   6.923715 O.3        1 UNL1     -0.4828
     18 C         -5.659775   1.423788   8.01872 C.ar        1 UNL1     -0.0067
     19 C         -6.036277   1.986217   6.781734 C.ar        1 UNL1     -0.0516
     20 C         -7.25382   2.662815   6.641144 C.ar        1 UNL1     -0.0198
     21 C         -8.098403   2.789888   7.729427 C.ar        1 UNL1     0.1169
     22 C         -7.770589   2.217882   8.951796 C.ar        1 UNL1     -0.0198
     23 C         -6.561503   1.525303   9.08782 C.ar        1 UNL1     -0.0516
     24 O         -9.258367   3.488222   7.564464 O.3        1 UNL1     -0.5068
     25 O         -5.77231   -2.471272   8.257854 O.2        1 UNL1     -0.2917
     26 O         -5.795452   -3.426929   5.736998 O.3        1 UNL1     -0.5058
     27 O         -0.236371   -0.193667   2.540975 O.3        1 UNL1     -0.3648
     28 O         0.278295   -1.952147   -0.567891 O.3        1 UNL1     -0.3841
     29 O         -2.461013   0.341098   -0.271133 O.3        1 UNL1     -0.3863
     30 O         -2.42776   -3.332547   -0.213356 O.3        1 UNL1     -0.3829
     31 H         0.628602   -1.840546   1.821531 H        1 UNL1     0.0937
     32 H         0.0   0.0   0.0 H        1 UNL1     0.0671
     33 H         -1.85558   -1.208464   -1.418325 H        1 UNL1     0.0649
     34 H         -3.832464   -1.859331   0.048131 H        1 UNL1     0.0683
     35 H         -3.189654   -2.958437   2.144083 H        1 UNL1     0.1085
     36 H         -4.819193   -2.988668   3.421366 H        1 UNL1     0.0691
     37 H         -2.800458   0.677101   4.478269 H        1 UNL1     0.0691
     38 H         -3.36124   -1.02215   9.013761 H        1 UNL1     0.0385
     39 H         -4.928344   -0.620164   9.742551 H        1 UNL1     0.0385
     40 H         -3.70856   1.383915   8.812422 H        1 UNL1     0.0789
     41 H         -5.386719   1.908004   5.914781 H        1 UNL1     0.0623
     42 H         -7.527453   3.10246   5.685189 H        1 UNL1     0.0654
     43 H         -8.431511   2.298438   9.806549 H        1 UNL1     0.0654
     44 H         -6.342331   1.081941   10.054381 H        1 UNL1     0.0623
     45 H         -9.035108   4.396666   7.304462 H        1 UNL1     0.2921
     46 H         -5.391655   -3.939212   6.455278 H        1 UNL1     0.2922
     47 H         0.505611   0.363261   2.266836 H        1 UNL1     0.2126
     48 H         1.209656   -1.883344   -0.282293 H        1 UNL1     0.2101
     49 H         -2.021808   0.925916   -0.909005 H        1 UNL1     0.2100
     50 H         -2.657032   -3.347547   -1.165681 H        1 UNL1     0.2102
@<TRIPOS>BOND
     1     1     2    1
     2     1     6    1
     3     2     3    1
     4     3     4    1
     5     3    29    1
     6     3    33    1
     7     4     5    1
     8     5     6    1
     9     5     7    1
    10     5    35    1
    11     7     8    1
    12     8     9   ar
    13     8    13   ar
    14     9    10   ar
    15     9    36    1
    16    10    11   ar
    17    10    26    1
    18    11    12   ar
    19    11    14    1
    20    12    13   ar
    21    12    17    1
    22    13    37    1
    23    14    15    1
    24    14    25    2
    25    15    16    1
    26    15    38    1
    27    15    39    1
    28    16    17    1
    29    16    18    1
    30    16    40    1
    31    18    19   ar
    32    18    23   ar
    33    19    20   ar
    34    19    41    1
    35    20    21   ar
    36    20    42    1
    37    21    22   ar
    38    21    24    1
    39    22    23   ar
    40    22    43    1
    41    23    44    1
    42    24    45    1
    43    26    46    1
    44    27    47    1
    45    28    48    1
    46    29    49    1
    47    30    50    1
    48     1    31    1
    49     1    27    1
    50     2    32    1
    51     2    28    1
    52     4    34    1
    53     4    30    1
