@<TRIPOS>MOLECULE
*****
 50 53 0 0 0
SMALL
GASTEIGER

@<TRIPOS>ATOM
     1 C         0.620981   -1.39021   1.566047 C.3        1 UNL1     0.1889
     2 C         0.078283   -1.084752   0.144036 C.3        1 UNL1     0.1342
     3 C         -1.277414   -1.732097   -0.177671 C.3        1 UNL1     0.1174
     4 C         -1.447543   -3.107447   0.472394 C.3        1 UNL1     0.1456
     5 C         -1.031771   -3.115121   1.95477 C.3        1 UNL1     0.2326
     6 O         0.319265   -2.677919   2.082929 O.3        1 UNL1     -0.3076
     7 O         -1.941821   -2.398671   2.80907 O.3        1 UNL1     -0.4605
     8 C         -1.454325   -1.23291   3.371989 C.ar        1 UNL1     0.1310
     9 C         -2.205247   -0.080256   3.626559 C.ar        1 UNL1     0.0226
     10 C         -1.622596   1.047265   4.21742 C.ar        1 UNL1     0.1343
     11 C         -0.279155   1.040959   4.590203 C.ar        1 UNL1     0.1007
     12 C         0.490861   -0.08942   4.303666 C.ar        1 UNL1     0.1389
     13 C         -0.094592   -1.222042   3.707142 C.ar        1 UNL1     0.0229
     14 C         0.366727   2.173331   5.293569 C.2        1 UNL1     0.1740
     15 C         1.748525   1.910041   5.815932 C.3        1 UNL1     0.0520
     16 C         2.508728   1.09547   4.778376 C.3        1 UNL1     0.1322
     17 O         1.845879   -0.163661   4.528795 O.3        1 UNL1     -0.4828
     18 C         2.866826   1.88484   3.516875 C.ar        1 UNL1     -0.0067
     19 C         3.947382   2.790118   3.54981 C.ar        1 UNL1     -0.0516
     20 C         4.271867   3.562447   2.428124 C.ar        1 UNL1     -0.0198
     21 C         3.520624   3.444347   1.27248 C.ar        1 UNL1     0.1169
     22 C         2.471521   2.537291   1.198515 C.ar        1 UNL1     -0.0198
     23 C         2.158375   1.751479   2.314084 C.ar        1 UNL1     -0.0516
     24 O         3.842667   4.240202   0.21262 O.3        1 UNL1     -0.5068
     25 O         -0.198511   3.240207   5.518881 O.2        1 UNL1     -0.2917
     26 O         -2.40962   2.139775   4.437875 O.3        1 UNL1     -0.5058
     27 O         0.341056   -0.36835   2.509568 O.3        1 UNL1     -0.3648
     28 O         1.027049   -1.57524   -0.82135 O.3        1 UNL1     -0.3841
     29 O         -2.350725   -0.839254   0.127233 O.3        1 UNL1     -0.3863
     30 O         -0.642206   -4.071259   -0.240478 O.3        1 UNL1     -0.3829
     31 H         1.71378   -1.394601   1.489555 H        1 UNL1     0.0937
     32 H         -0.0   0.0   0.0 H        1 UNL1     0.0671
     33 H         -1.325925   -1.886179   -1.264697 H        1 UNL1     0.0649
     34 H         -2.489608   -3.43497   0.387357 H        1 UNL1     0.0683
     35 H         -1.050699   -4.177265   2.229311 H        1 UNL1     0.1085
     36 H         -3.2671   -0.032405   3.41139 H        1 UNL1     0.0691
     37 H         0.526802   -2.089045   3.49344 H        1 UNL1     0.0691
     38 H         1.647466   1.356827   6.755755 H        1 UNL1     0.0385
     39 H         2.238508   2.865464   6.032411 H        1 UNL1     0.0385
     40 H         3.470624   0.814889   5.228432 H        1 UNL1     0.0789
     41 H         4.546761   2.907893   4.447878 H        1 UNL1     0.0623
     42 H         5.099995   4.265637   2.469837 H        1 UNL1     0.0654
     43 H         1.886143   2.425905   0.293619 H        1 UNL1     0.0654
     44 H         1.339065   1.045607   2.217532 H        1 UNL1     0.0623
     45 H         3.034566   4.414817   -0.296496 H        1 UNL1     0.2921
     46 H         -2.298143   2.439245   5.35401 H        1 UNL1     0.2922
     47 H         1.11767   -0.200245   3.061356 H        1 UNL1     0.2126
     48 H         0.677438   -2.425879   -1.149858 H        1 UNL1     0.2101
     49 H         -2.219999   -0.454929   1.008709 H        1 UNL1     0.2100
     50 H         0.258197   -3.697992   -0.338763 H        1 UNL1     0.2102
@<TRIPOS>BOND
     1     1     2    1
     2     1     6    1
     3     2     3    1
     4     3     4    1
     5     3    29    1
     6     3    33    1
     7     4     5    1
     8     5     6    1
     9     5     7    1
    10     5    35    1
    11     7     8    1
    12     8     9   ar
    13     8    13   ar
    14     9    10   ar
    15     9    36    1
    16    10    11   ar
    17    10    26    1
    18    11    12   ar
    19    11    14    1
    20    12    13   ar
    21    12    17    1
    22    13    37    1
    23    14    15    1
    24    14    25    2
    25    15    16    1
    26    15    38    1
    27    15    39    1
    28    16    17    1
    29    16    18    1
    30    16    40    1
    31    18    19   ar
    32    18    23   ar
    33    19    20   ar
    34    19    41    1
    35    20    21   ar
    36    20    42    1
    37    21    22   ar
    38    21    24    1
    39    22    23   ar
    40    22    43    1
    41    23    44    1
    42    24    45    1
    43    26    46    1
    44    27    47    1
    45    28    48    1
    46    29    49    1
    47    30    50    1
    48     1    31    1
    49     1    27    1
    50     2    32    1
    51     2    28    1
    52     4    34    1
    53     4    30    1
