@<TRIPOS>MOLECULE
*****
 50 53 0 0 0
SMALL
GASTEIGER

@<TRIPOS>ATOM
     1 C         -0.369195   -1.346778   1.679491 C.3        1 UNL1     0.1889
     2 C         -0.481422   -0.969632   0.17779 C.3        1 UNL1     0.1342
     3 C         -1.917548   -0.92329   -0.36614 C.3        1 UNL1     0.1174
     4 C         -2.827904   -1.975873   0.271384 C.3        1 UNL1     0.1456
     5 C         -2.688857   -2.026274   1.803862 C.3        1 UNL1     0.2326
     6 O         -1.330899   -2.274052   2.160826 O.3        1 UNL1     -0.3076
     7 O         -3.248222   -0.878651   2.468237 O.3        1 UNL1     -0.4605
     8 C         -3.778742   -1.104885   3.725574 C.ar        1 UNL1     0.1310
     9 C         -4.621984   -2.166695   4.070251 C.ar        1 UNL1     0.0226
     10 C         -5.094851   -2.31992   5.378999 C.ar        1 UNL1     0.1343
     11 C         -4.716363   -1.427612   6.381184 C.ar        1 UNL1     0.1007
     12 C         -3.907832   -0.340037   6.040241 C.ar        1 UNL1     0.1389
     13 C         -3.43464   -0.1847   4.723658 C.ar        1 UNL1     0.0229
     14 C         -5.118451   -1.589617   7.797599 C.2        1 UNL1     0.1740
     15 C         -4.442389   -0.671933   8.773482 C.3        1 UNL1     0.0520
     16 C         -4.336099   0.709254   8.14183 C.3        1 UNL1     0.1322
     17 O         -3.562965   0.657392   6.92255 O.3        1 UNL1     -0.4828
     18 C         -5.678934   1.432069   8.011229 C.ar        1 UNL1     -0.0067
     19 C         -6.022458   2.038924   6.785696 C.ar        1 UNL1     -0.0516
     20 C         -7.221364   2.748312   6.646568 C.ar        1 UNL1     -0.0198
     21 C         -8.079853   2.864058   7.725191 C.ar        1 UNL1     0.1169
     22 C         -7.78499   2.249225   8.935098 C.ar        1 UNL1     -0.0198
     23 C         -6.594843   1.524202   9.069065 C.ar        1 UNL1     -0.0516
     24 O         -9.220305   3.594491   7.563214 O.3        1 UNL1     -0.5068
     25 O         -5.890685   -2.462297   8.185633 O.2        1 UNL1     -0.2917
     26 O         -5.914989   -3.37626   5.649374 O.3        1 UNL1     -0.5058
     27 O         -0.250088   -0.223015   2.537253 O.3        1 UNL1     -0.3648
     28 O         0.237404   -1.949889   -0.593632 O.3        1 UNL1     -0.3841
     29 O         -2.45188   0.398942   -0.274905 O.3        1 UNL1     -0.3863
     30 O         -2.499674   -3.274989   -0.267369 O.3        1 UNL1     -0.3829
     31 H         0.581132   -1.878609   1.798288 H        1 UNL1     0.0937
     32 H         0.0   0.0   0.0 H        1 UNL1     0.0671
     33 H         -1.876394   -1.147816   -1.441135 H        1 UNL1     0.0649
     34 H         -3.872597   -1.774858   0.009447 H        1 UNL1     0.0683
     35 H         -3.261976   -2.916328   2.092339 H        1 UNL1     0.1085
     36 H         -4.907337   -2.925297   3.349683 H        1 UNL1     0.0691
     37 H         -2.807419   0.671166   4.4837 H        1 UNL1     0.0691
     38 H         -3.451127   -1.086474   8.985807 H        1 UNL1     0.0385
     39 H         -5.014208   -0.657137   9.707603 H        1 UNL1     0.0385
     40 H         -3.736531   1.33048   8.820885 H        1 UNL1     0.0789
     41 H         -5.361271   1.970274   5.926761 H        1 UNL1     0.0623
     42 H         -7.469401   3.22187   5.699873 H        1 UNL1     0.0654
     43 H         -8.457289   2.320841   9.781736 H        1 UNL1     0.0654
     44 H         -6.4015   1.047929   10.025427 H        1 UNL1     0.0623
     45 H         -8.971521   4.506554   7.341935 H        1 UNL1     0.2921
     46 H         -5.531891   -3.908532   6.36445 H        1 UNL1     0.2922
     47 H         0.499066   0.326316   2.26732 H        1 UNL1     0.2126
     48 H         1.176224   -1.875684   -0.335092 H        1 UNL1     0.2101
     49 H         -2.003427   0.980605   -0.909217 H        1 UNL1     0.2100
     50 H         -2.730916   -3.273803   -1.219334 H        1 UNL1     0.2102
@<TRIPOS>BOND
     1     1     2    1
     2     1     6    1
     3     2     3    1
     4     3     4    1
     5     3    29    1
     6     3    33    1
     7     4     5    1
     8     5     6    1
     9     5     7    1
    10     5    35    1
    11     7     8    1
    12     8     9   ar
    13     8    13   ar
    14     9    10   ar
    15     9    36    1
    16    10    11   ar
    17    10    26    1
    18    11    12   ar
    19    11    14    1
    20    12    13   ar
    21    12    17    1
    22    13    37    1
    23    14    15    1
    24    14    25    2
    25    15    16    1
    26    15    38    1
    27    15    39    1
    28    16    17    1
    29    16    18    1
    30    16    40    1
    31    18    19   ar
    32    18    23   ar
    33    19    20   ar
    34    19    41    1
    35    20    21   ar
    36    20    42    1
    37    21    22   ar
    38    21    24    1
    39    22    23   ar
    40    22    43    1
    41    23    44    1
    42    24    45    1
    43    26    46    1
    44    27    47    1
    45    28    48    1
    46    29    49    1
    47    30    50    1
    48     1    31    1
    49     1    27    1
    50     2    32    1
    51     2    28    1
    52     4    34    1
    53     4    30    1
