@<TRIPOS>MOLECULE
*****
 50 53 0 0 0
SMALL
GASTEIGER

@<TRIPOS>ATOM
     1 C         0.69805   -1.440761   1.485846 C.3        1 UNL1     0.1889
     2 C         -0.427052   -0.774573   0.649019 C.3        1 UNL1     0.1342
     3 C         -1.565751   -0.161506   1.478462 C.3        1 UNL1     0.1174
     4 C         -1.870047   -0.958708   2.749285 C.3        1 UNL1     0.1456
     5 C         -0.596814   -1.336605   3.528025 C.3        1 UNL1     0.2326
     6 O         0.285832   -2.075956   2.687095 O.3        1 UNL1     -0.3076
     7 O         0.03827   -0.214501   4.167456 O.3        1 UNL1     -0.4605
     8 C         1.222633   -0.484414   4.829241 C.ar        1 UNL1     0.1310
     9 C         1.855659   -1.730937   4.881772 C.ar        1 UNL1     0.0226
     10 C         3.065405   -1.900049   5.565744 C.ar        1 UNL1     0.1343
     11 C         3.684194   -0.820311   6.194321 C.ar        1 UNL1     0.1007
     12 C         3.041062   0.420273   6.183567 C.ar        1 UNL1     0.1389
     13 C         1.823352   0.589459   5.49801 C.ar        1 UNL1     0.0229
     14 C         5.003628   -0.92388   6.859543 C.2        1 UNL1     0.1740
     15 C         5.620119   0.376318   7.28495 C.3        1 UNL1     0.0520
     16 C         4.523416   1.266404   7.853234 C.3        1 UNL1     0.1322
     17 O         3.506055   1.523888   6.860386 O.3        1 UNL1     -0.4828
     18 C         3.984755   0.793267   9.205532 C.ar        1 UNL1     -0.0067
     19 C         4.8127   0.865896   10.344587 C.ar        1 UNL1     -0.0516
     20 C         4.368029   0.397907   11.58685 C.ar        1 UNL1     -0.0198
     21 C         3.103084   -0.150397   11.701324 C.ar        1 UNL1     0.1169
     22 C         2.252231   -0.205018   10.60501 C.ar        1 UNL1     -0.0198
     23 C         2.689853   0.279787   9.366662 C.ar        1 UNL1     -0.0516
     24 O         2.718598   -0.630384   12.918774 O.3        1 UNL1     -0.5068
     25 O         5.611653   -1.982485   6.994255 O.2        1 UNL1     -0.2917
     26 O         3.630588   -3.1418   5.580077 O.3        1 UNL1     -0.5058
     27 O         1.819795   -0.598254   1.697166 O.3        1 UNL1     -0.3648
     28 O         -1.010885   -1.77366   -0.207527 O.3        1 UNL1     -0.3841
     29 O         -1.315657   1.221127   1.739064 O.3        1 UNL1     -0.3863
     30 O         -2.572228   -2.169193   2.392415 O.3        1 UNL1     -0.3829
     31 H         1.090574   -2.265886   0.881551 H        1 UNL1     0.0937
     32 H         0.0   0.0   0.0 H        1 UNL1     0.0671
     33 H         -2.47686   -0.182506   0.864329 H        1 UNL1     0.0649
     34 H         -2.535474   -0.382647   3.401788 H        1 UNL1     0.0683
     35 H         -0.954938   -2.028154   4.300932 H        1 UNL1     0.1085
     36 H         1.454106   -2.596556   4.366428 H        1 UNL1     0.0691
     37 H         1.342299   1.565177   5.505584 H        1 UNL1     0.0691
     38 H         6.07863   0.83062   6.400131 H        1 UNL1     0.0385
     39 H         6.411255   0.176363   8.015635 H        1 UNL1     0.0385
     40 H         4.972713   2.249751   8.04735 H        1 UNL1     0.0789
     41 H         5.813155   1.28354   10.278922 H        1 UNL1     0.0623
     42 H         5.020251   0.448532   12.455213 H        1 UNL1     0.0654
     43 H         1.254161   -0.618624   10.686845 H        1 UNL1     0.0654
     44 H         1.994928   0.231028   8.533867 H        1 UNL1     0.0623
     45 H         3.424663   -1.203157   13.259539 H        1 UNL1     0.2921
     46 H         4.549734   -3.075417   5.883683 H        1 UNL1     0.2922
     47 H         2.13671   -0.244965   0.854189 H        1 UNL1     0.2126
     48 H         -0.355084   -1.960578   -0.906611 H        1 UNL1     0.2101
     49 H         -2.152835   1.711879   1.748432 H        1 UNL1     0.2100
     50 H         -3.454836   -1.916207   2.050781 H        1 UNL1     0.2102
@<TRIPOS>BOND
     1     1     2    1
     2     1     6    1
     3     2     3    1
     4     3     4    1
     5     3    29    1
     6     3    33    1
     7     4     5    1
     8     5     6    1
     9     5     7    1
    10     5    35    1
    11     7     8    1
    12     8     9   ar
    13     8    13   ar
    14     9    10   ar
    15     9    36    1
    16    10    11   ar
    17    10    26    1
    18    11    12   ar
    19    11    14    1
    20    12    13   ar
    21    12    17    1
    22    13    37    1
    23    14    15    1
    24    14    25    2
    25    15    16    1
    26    15    38    1
    27    15    39    1
    28    16    17    1
    29    16    18    1
    30    16    40    1
    31    18    19   ar
    32    18    23   ar
    33    19    20   ar
    34    19    41    1
    35    20    21   ar
    36    20    42    1
    37    21    22   ar
    38    21    24    1
    39    22    23   ar
    40    22    43    1
    41    23    44    1
    42    24    45    1
    43    26    46    1
    44    27    47    1
    45    28    48    1
    46    29    49    1
    47    30    50    1
    48     1    31    1
    49     1    27    1
    50     2    32    1
    51     2    28    1
    52     4    34    1
    53     4    30    1
