@<TRIPOS>MOLECULE
*****
 50 53 0 0 0
SMALL
GASTEIGER

@<TRIPOS>ATOM
     1 C         -0.003456   -1.108898   1.881791 C.3        1 UNL1     0.1889
     2 C         -0.265629   -1.003365   0.355335 C.3        1 UNL1     0.1342
     3 C         -1.707107   -1.320694   -0.071171 C.3        1 UNL1     0.1174
     4 C         -2.352152   -2.413904   0.784356 C.3        1 UNL1     0.1456
     5 C         -2.128303   -2.192961   2.291486 C.3        1 UNL1     0.2326
     6 O         -0.73199   -2.115386   2.569262 O.3        1 UNL1     -0.3076
     7 O         -2.873903   -1.083643   2.825167 O.3        1 UNL1     -0.4605
     8 C         -3.276757   -1.202018   4.143205 C.ar        1 UNL1     0.1310
     9 C         -3.863879   -2.337253   4.712264 C.ar        1 UNL1     0.0226
     10 C         -4.222555   -2.365477   6.065209 C.ar        1 UNL1     0.1343
     11 C         -3.980745   -1.266471   6.888346 C.ar        1 UNL1     0.1007
     12 C         -3.432624   -0.11244   6.322165 C.ar        1 UNL1     0.1389
     13 C         -3.074495   -0.083378   4.961162 C.ar        1 UNL1     0.0229
     14 C         -4.262537   -1.272026   8.342552 C.2        1 UNL1     0.1740
     15 C         -3.736601   -0.094964   9.110319 C.3        1 UNL1     0.0520
     16 C         -3.950928   1.159789   8.275085 C.3        1 UNL1     0.1322
     17 O         -3.251832   1.062347   7.014593 O.3        1 UNL1     -0.4828
     18 C         -5.418628   1.577352   8.155836 C.ar        1 UNL1     -0.0067
     19 C         -5.950174   1.885064   6.88659 C.ar        1 UNL1     -0.0516
     20 C         -7.274997   2.31583   6.747847 C.ar        1 UNL1     -0.0198
     21 C         -8.07447   2.449701   7.868895 C.ar        1 UNL1     0.1169
     22 C         -7.589748   2.122224   9.128515 C.ar        1 UNL1     -0.0198
     23 C         -6.270582   1.673778   9.265462 C.ar        1 UNL1     -0.0516
     24 O         -9.347825   2.908064   7.698985 O.3        1 UNL1     -0.5068
     25 O         -4.816704   -2.203471   8.920302 O.2        1 UNL1     -0.2917
     26 O         -4.792307   -3.502961   6.558256 O.3        1 UNL1     -0.5058
     27 O         -0.070879   0.138349   2.554558 O.3        1 UNL1     -0.3648
     28 O         0.596635   -1.936931   -0.321171 O.3        1 UNL1     -0.3841
     29 O         -2.492601   -0.128358   -0.130044 O.3        1 UNL1     -0.3863
     30 O         -1.795584   -3.694427   0.415326 O.3        1 UNL1     -0.3829
     31 H         1.039597   -1.422516   1.999103 H        1 UNL1     0.0937
     32 H         0.0   0.0   0.0 H        1 UNL1     0.0671
     33 H         -1.675907   -1.700717   -1.101865 H        1 UNL1     0.0649
     34 H         -3.427813   -2.461503   0.581651 H        1 UNL1     0.0683
     35 H         -2.494103   -3.119322   2.751838 H        1 UNL1     0.1085
     36 H         -4.02664   -3.243237   4.138834 H        1 UNL1     0.0691
     37 H         -2.650439   0.827617   4.544319 H        1 UNL1     0.0691
     38 H         -2.671221   -0.269275   9.295005 H        1 UNL1     0.0385
     39 H         -4.247047   -0.04046   10.077921 H        1 UNL1     0.0385
     40 H         -3.455214   1.987129   8.800724 H        1 UNL1     0.0789
     41 H         -5.340285   1.796867   5.992214 H        1 UNL1     0.0623
     42 H         -7.669651   2.561474   5.765036 H        1 UNL1     0.0654
     43 H         -8.211819   2.20902   10.011354 H        1 UNL1     0.0654
     44 H         -5.928245   1.416679   10.263235 H        1 UNL1     0.0623
     45 H         -9.304531   3.797652   7.312362 H        1 UNL1     0.2921
     46 H         -4.269405   -3.827862   7.308206 H        1 UNL1     0.2922
     47 H         0.54099   0.76984   2.151205 H        1 UNL1     0.2126
     48 H         1.513405   -1.658516   -0.132093 H        1 UNL1     0.2101
     49 H         -2.198346   0.42441   -0.871432 H        1 UNL1     0.2100
     50 H         -2.070223   -3.888684   -0.504756 H        1 UNL1     0.2102
@<TRIPOS>BOND
     1     1     2    1
     2     1     6    1
     3     2     3    1
     4     3     4    1
     5     3    29    1
     6     3    33    1
     7     4     5    1
     8     5     6    1
     9     5     7    1
    10     5    35    1
    11     7     8    1
    12     8     9   ar
    13     8    13   ar
    14     9    10   ar
    15     9    36    1
    16    10    11   ar
    17    10    26    1
    18    11    12   ar
    19    11    14    1
    20    12    13   ar
    21    12    17    1
    22    13    37    1
    23    14    15    1
    24    14    25    2
    25    15    16    1
    26    15    38    1
    27    15    39    1
    28    16    17    1
    29    16    18    1
    30    16    40    1
    31    18    19   ar
    32    18    23   ar
    33    19    20   ar
    34    19    41    1
    35    20    21   ar
    36    20    42    1
    37    21    22   ar
    38    21    24    1
    39    22    23   ar
    40    22    43    1
    41    23    44    1
    42    24    45    1
    43    26    46    1
    44    27    47    1
    45    28    48    1
    46    29    49    1
    47    30    50    1
    48     1    31    1
    49     1    27    1
    50     2    32    1
    51     2    28    1
    52     4    34    1
    53     4    30    1
