@<TRIPOS>MOLECULE
*****
 50 53 0 0 0
SMALL
GASTEIGER

@<TRIPOS>ATOM
     1 C         -0.655205   -1.244451   -1.671183 C.3        1 UNL1     0.1889
     2 C         0.127657   -1.032733   -0.34746 C.3        1 UNL1     0.1342
     3 C         1.628308   -1.351106   -0.432015 C.3        1 UNL1     0.1174
     4 C         1.935138   -2.519112   -1.372618 C.3        1 UNL1     0.1456
     5 C         1.193551   -2.404795   -2.716994 C.3        1 UNL1     0.2326
     6 O         -0.211388   -2.315537   -2.491059 O.3        1 UNL1     -0.3076
     7 O         1.698462   -1.355463   -3.56274 O.3        1 UNL1     -0.4605
     8 C         2.50922   -1.757395   -4.608995 C.ar        1 UNL1     0.1310
     9 C         3.108624   -0.905661   -5.543106 C.ar        1 UNL1     0.0226
     10 C         3.929485   -1.409048   -6.55932 C.ar        1 UNL1     0.1343
     11 C         4.190273   -2.775533   -6.651789 C.ar        1 UNL1     0.1007
     12 C         3.564526   -3.640077   -5.749688 C.ar        1 UNL1     0.1389
     13 C         2.737084   -3.133932   -4.729596 C.ar        1 UNL1     0.0229
     14 C         5.116174   -3.352677   -7.65367 C.2        1 UNL1     0.1740
     15 C         5.451248   -4.803495   -7.46819 C.3        1 UNL1     0.0520
     16 C         4.185448   -5.541186   -7.054043 C.3        1 UNL1     0.1322
     17 O         3.664622   -5.010451   -5.815443 O.3        1 UNL1     -0.4828
     18 C         3.150909   -5.667041   -8.175031 C.ar        1 UNL1     -0.0067
     19 C         3.525615   -5.364853   -9.500358 C.ar        1 UNL1     -0.0516
     20 C         2.592069   -5.423852   -10.541979 C.ar        1 UNL1     -0.0198
     21 C         1.28195   -5.77577   -10.27074 C.ar        1 UNL1     0.1169
     22 C         0.890499   -6.111372   -8.981175 C.ar        1 UNL1     -0.0198
     23 C         1.82818   -6.07034   -7.942365 C.ar        1 UNL1     -0.0516
     24 O         0.392123   -5.785702   -11.304427 O.3        1 UNL1     -0.5068
     25 O         5.651722   -2.691376   -8.539308 O.2        1 UNL1     -0.2917
     26 O         4.482963   -0.525229   -7.439156 O.3        1 UNL1     -0.5058
     27 O         -0.83456   -0.052123   -2.418827 O.3        1 UNL1     -0.3648
     28 O         -0.436851   -1.893599   0.658993 O.3        1 UNL1     -0.3841
     29 O         2.37903   -0.176225   -0.74539 O.3        1 UNL1     -0.3863
     30 O         1.549834   -3.755668   -0.733743 O.3        1 UNL1     -0.3829
     31 H         -1.671323   -1.541577   -1.389584 H        1 UNL1     0.0937
     32 H         0.0   0.0   0.0 H        1 UNL1     0.0671
     33 H         1.963985   -1.653248   0.569859 H        1 UNL1     0.0649
     34 H         3.013415   -2.57658   -1.558133 H        1 UNL1     0.0683
     35 H         1.37761   -3.370826   -3.203601 H        1 UNL1     0.1085
     36 H         2.990188   0.171099   -5.491321 H        1 UNL1     0.0691
     37 H         2.260771   -3.828079   -4.040554 H        1 UNL1     0.0691
     38 H         6.21917   -4.869183   -6.690046 H        1 UNL1     0.0385
     39 H         5.87347   -5.196266   -8.399446 H        1 UNL1     0.0385
     40 H         4.476553   -6.571877   -6.810211 H        1 UNL1     0.0789
     41 H         4.545644   -5.077082   -9.737799 H        1 UNL1     0.0623
     42 H         2.89048   -5.176987   -11.557863 H        1 UNL1     0.0654
     43 H         -0.129338   -6.402898   -8.760145 H        1 UNL1     0.0654
     44 H         1.490117   -6.349064   -6.948951 H        1 UNL1     0.0623
     45 H         -0.498433   -5.918768   -10.941216 H        1 UNL1     0.2921
     46 H         5.228238   -0.946804   -7.895501 H        1 UNL1     0.2922
     47 H         -1.206035   0.64251   -1.857266 H        1 UNL1     0.2126
     48 H         -0.849903   -1.311361   1.325416 H        1 UNL1     0.2101
     49 H         3.325615   -0.387918   -0.77631 H        1 UNL1     0.2100
     50 H         2.353463   -4.307144   -0.634909 H        1 UNL1     0.2102
@<TRIPOS>BOND
     1     1     2    1
     2     1     6    1
     3     2     3    1
     4     3     4    1
     5     3    29    1
     6     3    33    1
     7     4     5    1
     8     5     6    1
     9     5     7    1
    10     5    35    1
    11     7     8    1
    12     8     9   ar
    13     8    13   ar
    14     9    10   ar
    15     9    36    1
    16    10    11   ar
    17    10    26    1
    18    11    12   ar
    19    11    14    1
    20    12    13   ar
    21    12    17    1
    22    13    37    1
    23    14    15    1
    24    14    25    2
    25    15    16    1
    26    15    38    1
    27    15    39    1
    28    16    17    1
    29    16    18    1
    30    16    40    1
    31    18    19   ar
    32    18    23   ar
    33    19    20   ar
    34    19    41    1
    35    20    21   ar
    36    20    42    1
    37    21    22   ar
    38    21    24    1
    39    22    23   ar
    40    22    43    1
    41    23    44    1
    42    24    45    1
    43    26    46    1
    44    27    47    1
    45    28    48    1
    46    29    49    1
    47    30    50    1
    48     1    31    1
    49     1    27    1
    50     2    32    1
    51     2    28    1
    52     4    34    1
    53     4    30    1
