@<TRIPOS>MOLECULE
*****
 50 53 0 0 0
SMALL
GASTEIGER

@<TRIPOS>ATOM
     1 C         -0.369083   -1.397088   1.637903 C.3        1 UNL1     0.1889
     2 C         -0.486949   -0.971628   0.149605 C.3        1 UNL1     0.1342
     3 C         -1.925672   -0.898612   -0.384446 C.3        1 UNL1     0.1174
     4 C         -2.839592   -1.964969   0.224444 C.3        1 UNL1     0.1456
     5 C         -2.692545   -2.065011   1.753736 C.3        1 UNL1     0.2326
     6 O         -1.334358   -2.332897   2.094959 O.3        1 UNL1     -0.3076
     7 O         -3.240563   -0.935473   2.457399 O.3        1 UNL1     -0.4605
     8 C         -3.769145   -1.198794   3.708315 C.ar        1 UNL1     0.1310
     9 C         -4.61162   -2.270532   4.022822 C.ar        1 UNL1     0.0226
     10 C         -5.082489   -2.462373   5.327192 C.ar        1 UNL1     0.1343
     11 C         -4.70271   -1.599867   6.354661 C.ar        1 UNL1     0.1007
     12 C         -3.894946   -0.502495   6.044698 C.ar        1 UNL1     0.1389
     13 C         -3.423764   -0.308312   4.732558 C.ar        1 UNL1     0.0229
     14 C         -5.102636   -1.803637   7.766288 C.2        1 UNL1     0.1740
     15 C         -4.425328   -0.914909   8.76777 C.3        1 UNL1     0.0520
     16 C         -4.32031   0.484314   8.17692 C.3        1 UNL1     0.1322
     17 O         -3.548991   0.468607   6.955491 O.3        1 UNL1     -0.4828
     18 C         -5.663508   1.210289   8.06967 C.ar        1 UNL1     -0.0067
     19 C         -5.760275   2.37476   7.280457 C.ar        1 UNL1     -0.0516
     20 C         -6.961386   3.089329   7.198691 C.ar        1 UNL1     -0.0198
     21 C         -8.068327   2.654849   7.905612 C.ar        1 UNL1     0.1169
     22 C         -8.013541   1.493135   8.664729 C.ar        1 UNL1     -0.0198
     23 C         -6.817746   0.768146   8.731969 C.ar        1 UNL1     -0.0516
     24 O         -9.210009   3.397484   7.831747 O.3        1 UNL1     -0.5068
     25 O         -5.874083   -2.687584   8.129598 O.2        1 UNL1     -0.2917
     26 O         -5.901973   -3.526448   5.567556 O.3        1 UNL1     -0.5058
     27 O         -0.237761   -0.301988   2.530258 O.3        1 UNL1     -0.3648
     28 O         0.221066   -1.931526   -0.656632 O.3        1 UNL1     -0.3841
     29 O         -2.450606   0.423515   -0.248216 O.3        1 UNL1     -0.3863
     30 O         -2.523035   -3.248405   -0.35717 O.3        1 UNL1     -0.3829
     31 H         0.578283   -1.938634   1.734363 H        1 UNL1     0.0937
     32 H         0.0   0.0   0.0 H        1 UNL1     0.0671
     33 H         -1.891881   -1.089086   -1.466249 H        1 UNL1     0.0649
     34 H         -3.884322   -1.748893   -0.02506 H        1 UNL1     0.0683
     35 H         -3.27005   -2.960025   2.017018 H        1 UNL1     0.1085
     36 H         -4.897874   -3.007658   3.280647 H        1 UNL1     0.0691
     37 H         -2.797105   0.554426   4.516981 H        1 UNL1     0.0691
     38 H         -3.433652   -1.335247   8.966314 H        1 UNL1     0.0385
     39 H         -4.99575   -0.927795   9.702773 H        1 UNL1     0.0385
     40 H         -3.71987   1.085435   8.873086 H        1 UNL1     0.0789
     41 H         -4.903123   2.741526   6.723301 H        1 UNL1     0.0623
     42 H         -7.020031   3.992413   6.596187 H        1 UNL1     0.0654
     43 H         -8.87867   1.135617   9.210295 H        1 UNL1     0.0654
     44 H         -6.813779   -0.140617   9.326089 H        1 UNL1     0.0623
     45 H         -9.041159   4.261153   8.241969 H        1 UNL1     0.2921
     46 H         -5.52883   -4.067398   6.281383 H        1 UNL1     0.2922
     47 H         0.506834   0.25681   2.267232 H        1 UNL1     0.2126
     48 H         1.173141   -1.778666   -0.501978 H        1 UNL1     0.2101
     49 H         -2.135628   0.980452   -0.977876 H        1 UNL1     0.2100
     50 H         -2.780399   -3.222957   -1.302066 H        1 UNL1     0.2102
@<TRIPOS>BOND
     1     1     2    1
     2     1     6    1
     3     2     3    1
     4     3     4    1
     5     3    29    1
     6     3    33    1
     7     4     5    1
     8     5     6    1
     9     5     7    1
    10     5    35    1
    11     7     8    1
    12     8     9   ar
    13     8    13   ar
    14     9    10   ar
    15     9    36    1
    16    10    11   ar
    17    10    26    1
    18    11    12   ar
    19    11    14    1
    20    12    13   ar
    21    12    17    1
    22    13    37    1
    23    14    15    1
    24    14    25    2
    25    15    16    1
    26    15    38    1
    27    15    39    1
    28    16    17    1
    29    16    18    1
    30    16    40    1
    31    18    19   ar
    32    18    23   ar
    33    19    20   ar
    34    19    41    1
    35    20    21   ar
    36    20    42    1
    37    21    22   ar
    38    21    24    1
    39    22    23   ar
    40    22    43    1
    41    23    44    1
    42    24    45    1
    43    26    46    1
    44    27    47    1
    45    28    48    1
    46    29    49    1
    47    30    50    1
    48     1    31    1
    49     1    27    1
    50     2    32    1
    51     2    28    1
    52     4    34    1
    53     4    30    1
