@<TRIPOS>MOLECULE
*****
 50 53 0 0 0
SMALL
GASTEIGER

@<TRIPOS>ATOM
     1 C         -0.400258   -1.404534   1.624156 C.3        1 UNL1     0.1889
     2 C         -0.430689   -1.001173   0.125385 C.3        1 UNL1     0.1342
     3 C         -1.825314   -1.030966   -0.518507 C.3        1 UNL1     0.1174
     4 C         -2.709968   -2.15168   0.033312 C.3        1 UNL1     0.1456
     5 C         -2.675556   -2.228043   1.570631 C.3        1 UNL1     0.2326
     6 O         -1.332995   -2.399836   2.018832 O.3        1 UNL1     -0.3076
     7 O         -3.351145   -1.132298   2.214248 O.3        1 UNL1     -0.4605
     8 C         -3.946562   -1.417227   3.429906 C.ar        1 UNL1     0.1310
     9 C         -4.739012   -2.537812   3.70122 C.ar        1 UNL1     0.0226
     10 C         -5.285165   -2.747206   4.973137 C.ar        1 UNL1     0.1343
     11 C         -5.032209   -1.852491   6.012049 C.ar        1 UNL1     0.1007
     12 C         -4.276255   -0.70851   5.742559 C.ar        1 UNL1     0.1389
     13 C         -3.729405   -0.496832   4.46288 C.ar        1 UNL1     0.0229
     14 C         -5.514334   -2.068228   7.395945 C.2        1 UNL1     0.1740
     15 C         -4.965029   -1.128499   8.428767 C.3        1 UNL1     0.0520
     16 C         -4.908604   0.268965   7.827212 C.3        1 UNL1     0.1322
     17 O         -4.055852   0.291306   6.661285 O.3        1 UNL1     -0.4828
     18 C         -6.28458   0.906214   7.619059 C.ar        1 UNL1     -0.0067
     19 C         -6.591829   1.500793   6.377975 C.ar        1 UNL1     -0.0516
     20 C         -7.823061   2.13385   6.169966 C.ar        1 UNL1     -0.0198
     21 C         -8.750515   2.185388   7.195149 C.ar        1 UNL1     0.1169
     22 C         -8.49029   1.579896   8.417647 C.ar        1 UNL1     -0.0198
     23 C         -7.266474   0.930724   8.619897 C.ar        1 UNL1     -0.0516
     24 O         -9.923489   2.843359   6.967978 O.3        1 UNL1     -0.5068
     25 O         -6.251316   -2.996402   7.718182 O.2        1 UNL1     -0.2917
     26 O         -6.050123   -3.859367   5.171941 O.3        1 UNL1     -0.5058
     27 O         -0.41241   -0.295239   2.508522 O.3        1 UNL1     -0.3648
     28 O         0.400607   -1.917687   -0.610588 O.3        1 UNL1     -0.3841
     29 O         -2.446884   0.253501   -0.44152 O.3        1 UNL1     -0.3863
     30 O         -2.26374   -3.415645   -0.504239 O.3        1 UNL1     -0.3829
     31 H         0.571019   -1.879459   1.800637 H        1 UNL1     0.0937
     32 H         0.0   0.0   0.0 H        1 UNL1     0.0671
     33 H         -1.695019   -1.228192   -1.591748 H        1 UNL1     0.0649
     34 H         -3.744357   -2.009429   -0.298659 H        1 UNL1     0.0683
     35 H         -3.210285   -3.15795   1.801321 H        1 UNL1     0.1085
     36 H         -4.926374   -3.29873   2.951539 H        1 UNL1     0.0691
     37 H         -3.14537   0.402275   4.278485 H        1 UNL1     0.0691
     38 H         -3.964672   -1.482453   8.699928 H        1 UNL1     0.0385
     39 H         -5.596296   -1.169173   9.322984 H        1 UNL1     0.0385
     40 H         -4.396654   0.913892   8.55419 H        1 UNL1     0.0789
     41 H         -5.877139   1.481801   5.560352 H        1 UNL1     0.0623
     42 H         -8.043447   2.599016   5.212332 H        1 UNL1     0.0654
     43 H         -9.215499   1.601251   9.222338 H        1 UNL1     0.0654
     44 H         -7.100978   0.459293   9.583852 H        1 UNL1     0.0623
     45 H         -9.720666   3.771442   6.767376 H        1 UNL1     0.2921
     46 H         -5.680391   -4.379977   5.902472 H        1 UNL1     0.2922
     47 H         0.320993   0.302296   2.306206 H        1 UNL1     0.2126
     48 H         1.308768   -1.807895   -0.268649 H        1 UNL1     0.2101
     49 H         -1.992666   0.875825   -1.031599 H        1 UNL1     0.2100
     50 H         -2.427445   -3.407177   -1.470076 H        1 UNL1     0.2102
@<TRIPOS>BOND
     1     1     2    1
     2     1     6    1
     3     2     3    1
     4     3     4    1
     5     3    29    1
     6     3    33    1
     7     4     5    1
     8     5     6    1
     9     5     7    1
    10     5    35    1
    11     7     8    1
    12     8     9   ar
    13     8    13   ar
    14     9    10   ar
    15     9    36    1
    16    10    11   ar
    17    10    26    1
    18    11    12   ar
    19    11    14    1
    20    12    13   ar
    21    12    17    1
    22    13    37    1
    23    14    15    1
    24    14    25    2
    25    15    16    1
    26    15    38    1
    27    15    39    1
    28    16    17    1
    29    16    18    1
    30    16    40    1
    31    18    19   ar
    32    18    23   ar
    33    19    20   ar
    34    19    41    1
    35    20    21   ar
    36    20    42    1
    37    21    22   ar
    38    21    24    1
    39    22    23   ar
    40    22    43    1
    41    23    44    1
    42    24    45    1
    43    26    46    1
    44    27    47    1
    45    28    48    1
    46    29    49    1
    47    30    50    1
    48     1    31    1
    49     1    27    1
    50     2    32    1
    51     2    28    1
    52     4    34    1
    53     4    30    1
