@<TRIPOS>MOLECULE
*****
 50 53 0 0 0
SMALL
GASTEIGER

@<TRIPOS>ATOM
     1 C         -0.345569   -1.336324   1.692815 C.3        1 UNL1     0.1889
     2 C         -0.469086   -0.973659   0.188436 C.3        1 UNL1     0.1342
     3 C         -1.90812   -0.94903   -0.349189 C.3        1 UNL1     0.1174
     4 C         -2.803032   -2.006681   0.301675 C.3        1 UNL1     0.1456
     5 C         -2.656428   -2.042051   1.833869 C.3        1 UNL1     0.2326
     6 O         -1.29402   -2.27065   2.186649 O.3        1 UNL1     -0.3076
     7 O         -3.226322   -0.895355   2.490854 O.3        1 UNL1     -0.4605
     8 C         -3.190968   0.290566   1.779608 C.ar        1 UNL1     0.1310
     9 C         -2.081612   0.787205   1.086803 C.ar        1 UNL1     0.0226
     10 C         -2.150469   1.993602   0.37986 C.ar        1 UNL1     0.1343
     11 C         -3.338542   2.721421   0.328845 C.ar        1 UNL1     0.1007
     12 C         -4.441169   2.256467   1.050519 C.ar        1 UNL1     0.1389
     13 C         -4.370904   1.044761   1.763442 C.ar        1 UNL1     0.0229
     14 C         -3.491326   3.958579   -0.471313 C.2        1 UNL1     0.1740
     15 C         -4.891128   4.485595   -0.591139 C.3        1 UNL1     0.0520
     16 C         -5.579912   4.334669   0.758215 C.3        1 UNL1     0.1322
     17 O         -5.625883   2.94722   1.15814 O.3        1 UNL1     -0.4828
     18 C         -5.047534   5.286981   1.831714 C.ar        1 UNL1     -0.0067
     19 C         -4.724725   4.781206   3.107723 C.ar        1 UNL1     -0.0516
     20 C         -4.280472   5.632473   4.12652 C.ar        1 UNL1     -0.0198
     21 C         -4.162112   6.989424   3.884648 C.ar        1 UNL1     0.1169
     22 C         -4.440465   7.512561   2.628588 C.ar        1 UNL1     -0.0198
     23 C         -4.867076   6.658873   1.604247 C.ar        1 UNL1     -0.0516
     24 O         -3.762728   7.792785   4.912025 O.3        1 UNL1     -0.5068
     25 O         -2.564035   4.492842   -1.073956 O.2        1 UNL1     -0.2917
     26 O         -1.032622   2.423247   -0.273905 O.3        1 UNL1     -0.5058
     27 O         -0.235883   -0.203785   2.540229 O.3        1 UNL1     -0.3648
     28 O         0.257787   -1.95206   -0.577784 O.3        1 UNL1     -0.3841
     29 O         -2.45766   0.367547   -0.266948 O.3        1 UNL1     -0.3863
     30 O         -2.461887   -3.306486   -0.227304 O.3        1 UNL1     -0.3829
     31 H         0.611523   -1.855839   1.811802 H        1 UNL1     0.0937
     32 H         0.0   0.0   0.0 H        1 UNL1     0.0671
     33 H         -1.869199   -1.182434   -1.422375 H        1 UNL1     0.0649
     34 H         -3.851213   -1.820311   0.042866 H        1 UNL1     0.0683
     35 H         -3.217643   -2.936257   2.132723 H        1 UNL1     0.1085
     36 H         -1.146046   0.240589   1.041561 H        1 UNL1     0.0691
     37 H         -5.242978   0.70514   2.318093 H        1 UNL1     0.0691
     38 H         -5.401005   3.898829   -1.362668 H        1 UNL1     0.0385
     39 H         -4.854712   5.528808   -0.92304 H        1 UNL1     0.0385
     40 H         -6.632625   4.614836   0.617424 H        1 UNL1     0.0789
     41 H         -4.817952   3.721232   3.325469 H        1 UNL1     0.0623
     42 H         -4.046048   5.232084   5.109753 H        1 UNL1     0.0654
     43 H         -4.336768   8.571473   2.423985 H        1 UNL1     0.0654
     44 H         -5.065598   7.100197   0.632307 H        1 UNL1     0.0623
     45 H         -4.414939   7.72233   5.627828 H        1 UNL1     0.2921
     46 H         -1.237466   2.55432   -1.213197 H        1 UNL1     0.2922
     47 H         0.508859   0.349121   2.265433 H        1 UNL1     0.2126
     48 H         1.193503   -1.880009   -0.307645 H        1 UNL1     0.2101
     49 H         -2.01902   0.948903   -0.908364 H        1 UNL1     0.2100
     50 H         -2.697455   -3.316345   -1.178158 H        1 UNL1     0.2102
@<TRIPOS>BOND
     1     1     2    1
     2     1     6    1
     3     2     3    1
     4     3     4    1
     5     3    29    1
     6     3    33    1
     7     4     5    1
     8     5     6    1
     9     5     7    1
    10     5    35    1
    11     7     8    1
    12     8     9   ar
    13     8    13   ar
    14     9    10   ar
    15     9    36    1
    16    10    11   ar
    17    10    26    1
    18    11    12   ar
    19    11    14    1
    20    12    13   ar
    21    12    17    1
    22    13    37    1
    23    14    15    1
    24    14    25    2
    25    15    16    1
    26    15    38    1
    27    15    39    1
    28    16    17    1
    29    16    18    1
    30    16    40    1
    31    18    19   ar
    32    18    23   ar
    33    19    20   ar
    34    19    41    1
    35    20    21   ar
    36    20    42    1
    37    21    22   ar
    38    21    24    1
    39    22    23   ar
    40    22    43    1
    41    23    44    1
    42    24    45    1
    43    26    46    1
    44    27    47    1
    45    28    48    1
    46    29    49    1
    47    30    50    1
    48     1    31    1
    49     1    27    1
    50     2    32    1
    51     2    28    1
    52     4    34    1
    53     4    30    1
