@<TRIPOS>MOLECULE
*****
 50 53 0 0 0
SMALL
GASTEIGER

@<TRIPOS>ATOM
     1 C         -0.345596   -1.375122   1.661447 C.3        1 UNL1     0.1889
     2 C         -0.472118   -0.976184   0.166529 C.3        1 UNL1     0.1342
     3 C         -1.912596   -0.93353   -0.366076 C.3        1 UNL1     0.1174
     4 C         -2.809509   -2.003191   0.262007 C.3        1 UNL1     0.1456
     5 C         -2.658618   -2.075677   1.792477 C.3        1 UNL1     0.2326
     6 O         -1.296047   -2.31755   2.135649 O.3        1 UNL1     -0.3076
     7 O         -3.222394   -0.942953   2.478343 O.3        1 UNL1     -0.4605
     8 C         -3.745041   -1.193384   3.734389 C.ar        1 UNL1     0.1310
     9 C         -4.56241   -2.277935   4.070483 C.ar        1 UNL1     0.0226
     10 C         -5.029039   -2.454504   5.378529 C.ar        1 UNL1     0.1343
     11 C         -4.669733   -1.562961   6.388426 C.ar        1 UNL1     0.1007
     12 C         -3.887665   -0.453506   6.056368 C.ar        1 UNL1     0.1389
     13 C         -3.420776   -0.274744   4.740507 C.ar        1 UNL1     0.0229
     14 C         -5.065191   -1.747651   7.803931 C.2        1 UNL1     0.1740
     15 C         -4.409042   -0.823488   8.787263 C.3        1 UNL1     0.0520
     16 C         -4.336482   0.565675   8.16846 C.3        1 UNL1     0.1322
     17 O         -3.564673   0.543455   6.947441 O.3        1 UNL1     -0.4828
     18 C         -5.696197   1.257868   8.046937 C.ar        1 UNL1     -0.0067
     19 C         -5.819846   2.403713   7.234555 C.ar        1 UNL1     -0.0516
     20 C         -7.037253   3.088328   7.138713 C.ar        1 UNL1     -0.0198
     21 C         -8.133966   2.64244   7.854416 C.ar        1 UNL1     0.1169
     22 C         -8.052343   1.49777   8.636661 C.ar        1 UNL1     -0.0198
     23 C         -6.840003   0.802326   8.71819 C.ar        1 UNL1     -0.0516
     24 O         -9.292616   3.356649   7.765899 O.3        1 UNL1     -0.5068
     25 O         -5.815937   -2.641867   8.185039 O.2        1 UNL1     -0.2917
     26 O         -5.82358   -3.532347   5.640336 O.3        1 UNL1     -0.5058
     27 O         -0.229303   -0.26355   2.535329 O.3        1 UNL1     -0.3648
     28 O         0.24894   -1.938619   -0.624989 O.3        1 UNL1     -0.3841
     29 O         -2.457052   0.382681   -0.250792 O.3        1 UNL1     -0.3863
     30 O         -2.474674   -3.291212   -0.298866 O.3        1 UNL1     -0.3829
     31 H         0.609919   -1.90078   1.765151 H        1 UNL1     0.0937
     32 H         0.0   0.0   0.0 H        1 UNL1     0.0671
     33 H         -1.87763   -1.141372   -1.444639 H        1 UNL1     0.0649
     34 H         -3.857741   -1.806912   0.010837 H        1 UNL1     0.0683
     35 H         -3.222252   -2.974736   2.071563 H        1 UNL1     0.1085
     36 H         -4.831213   -3.03626   3.343291 H        1 UNL1     0.0691
     37 H         -2.814323   0.597862   4.507555 H        1 UNL1     0.0691
     38 H         -3.407897   -1.216548   8.994002 H        1 UNL1     0.0385
     39 H         -4.979264   -0.830911   9.722447 H        1 UNL1     0.0385
     40 H         -3.750397   1.194455   8.852317 H        1 UNL1     0.0789
     41 H         -4.971317   2.779103   6.669992 H        1 UNL1     0.0623
     42 H         -7.116753   3.977541   6.518236 H        1 UNL1     0.0654
     43 H         -8.909059   1.131205   9.189452 H        1 UNL1     0.0654
     44 H         -6.815032   -0.094005   9.33041 H        1 UNL1     0.0623
     45 H         -9.131655   4.247105   8.11789 H        1 UNL1     0.2921
     46 H         -5.438133   -4.050039   6.364793 H        1 UNL1     0.2922
     47 H         0.506437   0.301877   2.261762 H        1 UNL1     0.2126
     48 H         1.194245   -1.829296   -0.405491 H        1 UNL1     0.2101
     49 H         -2.018369   0.977527   -0.879688 H        1 UNL1     0.2100
     50 H         -2.73385   -3.285269   -1.24359 H        1 UNL1     0.2102
@<TRIPOS>BOND
     1     1     2    1
     2     1     6    1
     3     2     3    1
     4     3     4    1
     5     3    29    1
     6     3    33    1
     7     4     5    1
     8     5     6    1
     9     5     7    1
    10     5    35    1
    11     7     8    1
    12     8     9   ar
    13     8    13   ar
    14     9    10   ar
    15     9    36    1
    16    10    11   ar
    17    10    26    1
    18    11    12   ar
    19    11    14    1
    20    12    13   ar
    21    12    17    1
    22    13    37    1
    23    14    15    1
    24    14    25    2
    25    15    16    1
    26    15    38    1
    27    15    39    1
    28    16    17    1
    29    16    18    1
    30    16    40    1
    31    18    19   ar
    32    18    23   ar
    33    19    20   ar
    34    19    41    1
    35    20    21   ar
    36    20    42    1
    37    21    22   ar
    38    21    24    1
    39    22    23   ar
    40    22    43    1
    41    23    44    1
    42    24    45    1
    43    26    46    1
    44    27    47    1
    45    28    48    1
    46    29    49    1
    47    30    50    1
    48     1    31    1
    49     1    27    1
    50     2    32    1
    51     2    28    1
    52     4    34    1
    53     4    30    1
