@<TRIPOS>MOLECULE
*****
 50 53 0 0 0
SMALL
GASTEIGER

@<TRIPOS>ATOM
     1 C         -1.450447   -1.318569   0.963528 C.3        1 UNL1     0.1889
     2 C         -0.875948   -0.596047   -0.284613 C.3        1 UNL1     0.1342
     3 C         -1.87802   0.306013   -1.021229 C.3        1 UNL1     0.1174
     4 C         -3.305104   -0.247034   -0.995 C.3        1 UNL1     0.1456
     5 C         -3.728858   -0.72068   0.407303 C.3        1 UNL1     0.2326
     6 O         -2.814568   -1.705045   0.884761 O.3        1 UNL1     -0.3076
     7 O         -3.936675   0.357301   1.337943 O.3        1 UNL1     -0.4605
     8 C         -4.898815   0.143259   2.308511 C.ar        1 UNL1     0.1310
     9 C         -6.173205   -0.388108   2.082946 C.ar        1 UNL1     0.0226
     10 C         -7.073053   -0.583169   3.137521 C.ar        1 UNL1     0.1343
     11 C         -6.711273   -0.273459   4.447878 C.ar        1 UNL1     0.1007
     12 C         -5.456485   0.296019   4.680222 C.ar        1 UNL1     0.1389
     13 C         -4.552856   0.494512   3.619333 C.ar        1 UNL1     0.0229
     14 C         -7.591116   -0.537207   5.609974 C.2        1 UNL1     0.1740
     15 C         -6.959098   -0.351691   6.958189 C.3        1 UNL1     0.0520
     16 C         -6.074904   0.886771   6.909497 C.3        1 UNL1     0.1322
     17 O         -5.0386   0.73815   5.91398 O.3        1 UNL1     -0.4828
     18 C         -6.857234   2.19926   6.819737 C.ar        1 UNL1     -0.0067
     19 C         -6.490681   3.159348   5.854292 C.ar        1 UNL1     -0.0516
     20 C         -7.154499   4.389491   5.776469 C.ar        1 UNL1     -0.0198
     21 C         -8.179324   4.673882   6.661163 C.ar        1 UNL1     0.1169
     22 C         -8.585294   3.735503   7.601095 C.ar        1 UNL1     -0.0198
     23 C         -7.933875   2.498023   7.667074 C.ar        1 UNL1     -0.0516
     24 O         -8.777406   5.897033   6.579908 O.3        1 UNL1     -0.5068
     25 O         -8.740185   -0.95835   5.506218 O.2        1 UNL1     -0.2917
     26 O         -8.300874   -1.104231   2.850233 O.3        1 UNL1     -0.5058
     27 O         -1.164148   -0.653405   2.183519 O.3        1 UNL1     -0.3648
     28 O         -0.426942   -1.592291   -1.221948 O.3        1 UNL1     -0.3841
     29 O         -1.796572   1.650313   -0.543362 O.3        1 UNL1     -0.3863
     30 O         -3.398222   -1.361297   -1.909022 O.3        1 UNL1     -0.3829
     31 H         -0.918319   -2.272634   1.045251 H        1 UNL1     0.0937
     32 H         0.0   0.0   0.0 H        1 UNL1     0.0671
     33 H         -1.574576   0.352575   -2.076441 H        1 UNL1     0.0649
     34 H         -4.008361   0.515851   -1.346904 H        1 UNL1     0.0683
     35 H         -4.685537   -1.230086   0.236569 H        1 UNL1     0.1085
     36 H         -6.49394   -0.700955   1.095335 H        1 UNL1     0.0691
     37 H         -3.582485   0.94058   3.82645 H        1 UNL1     0.0691
     38 H         -6.369945   -1.249355   7.174117 H        1 UNL1     0.0385
     39 H         -7.746306   -0.268904   7.715307 H        1 UNL1     0.0385
     40 H         -5.533636   0.935804   7.864036 H        1 UNL1     0.0789
     41 H         -5.683487   2.963812   5.154396 H        1 UNL1     0.0623
     42 H         -6.854679   5.126292   5.03536 H        1 UNL1     0.0654
     43 H         -9.396613   3.941977   8.288874 H        1 UNL1     0.0654
     44 H         -8.284153   1.784549   8.406739 H        1 UNL1     0.0623
     45 H         -8.106223   6.578344   6.747372 H        1 UNL1     0.2921
     46 H         -8.441663   -1.908554   3.374309 H        1 UNL1     0.2922
     47 H         -0.210083   -0.524869   2.2789 H        1 UNL1     0.2126
     48 H         0.28821   -2.089603   -0.780392 H        1 UNL1     0.2101
     49 H         -0.955859   2.048482   -0.819872 H        1 UNL1     0.2100
     50 H         -3.269423   -1.017735   -2.817366 H        1 UNL1     0.2102
@<TRIPOS>BOND
     1     1     2    1
     2     1     6    1
     3     2     3    1
     4     3     4    1
     5     3    29    1
     6     3    33    1
     7     4     5    1
     8     5     6    1
     9     5     7    1
    10     5    35    1
    11     7     8    1
    12     8     9   ar
    13     8    13   ar
    14     9    10   ar
    15     9    36    1
    16    10    11   ar
    17    10    26    1
    18    11    12   ar
    19    11    14    1
    20    12    13   ar
    21    12    17    1
    22    13    37    1
    23    14    15    1
    24    14    25    2
    25    15    16    1
    26    15    38    1
    27    15    39    1
    28    16    17    1
    29    16    18    1
    30    16    40    1
    31    18    19   ar
    32    18    23   ar
    33    19    20   ar
    34    19    41    1
    35    20    21   ar
    36    20    42    1
    37    21    22   ar
    38    21    24    1
    39    22    23   ar
    40    22    43    1
    41    23    44    1
    42    24    45    1
    43    26    46    1
    44    27    47    1
    45    28    48    1
    46    29    49    1
    47    30    50    1
    48     1    31    1
    49     1    27    1
    50     2    32    1
    51     2    28    1
    52     4    34    1
    53     4    30    1
