@<TRIPOS>MOLECULE
*****
 50 53 0 0 0
SMALL
GASTEIGER

@<TRIPOS>ATOM
     1 C         0.122233   -1.778277   1.262376 C.3        1 UNL1     0.1889
     2 C         -0.380403   -1.029007   -0.00091 C.3        1 UNL1     0.1342
     3 C         -1.907902   -0.998425   -0.163011 C.3        1 UNL1     0.1174
     4 C         -2.583698   -2.27695   0.338777 C.3        1 UNL1     0.1456
     5 C         -2.060936   -2.718641   1.717904 C.3        1 UNL1     0.2326
     6 O         -0.647773   -2.900847   1.666509 O.3        1 UNL1     -0.3076
     7 O         -2.481927   -1.859045   2.792697 O.3        1 UNL1     -0.4605
     8 C         -2.672216   -2.470426   4.018883 C.ar        1 UNL1     0.1310
     9 C         -3.356703   -3.67263   4.227412 C.ar        1 UNL1     0.0226
     10 C         -3.481527   -4.221447   5.509255 C.ar        1 UNL1     0.1343
     11 C         -2.903822   -3.592921   6.611549 C.ar        1 UNL1     0.1007
     12 C         -2.253091   -2.37091   6.421751 C.ar        1 UNL1     0.1389
     13 C         -2.129995   -1.817942   5.133145 C.ar        1 UNL1     0.0229
     14 C         -2.932962   -4.171035   7.975033 C.2        1 UNL1     0.1740
     15 C         -2.074991   -3.478113   8.992527 C.3        1 UNL1     0.0520
     16 C         -2.188698   -1.97546   8.775593 C.3        1 UNL1     0.1322
     17 O         -1.742286   -1.613476   7.450167 O.3        1 UNL1     -0.4828
     18 C         -3.5514   -1.397945   9.165778 C.ar        1 UNL1     -0.0067
     19 C         -4.614326   -2.274105   9.46702 C.ar        1 UNL1     -0.0516
     20 C         -5.885785   -1.779567   9.781323 C.ar        1 UNL1     -0.0198
     21 C         -6.108508   -0.414233   9.790545 C.ar        1 UNL1     0.1169
     22 C         -5.073469   0.474672   9.530966 C.ar        1 UNL1     -0.0198
     23 C         -3.797361   -0.019124   9.234708 C.ar        1 UNL1     -0.0516
     24 O         -7.368997   0.029349   10.064045 O.3        1 UNL1     -0.5068
     25 O         -3.546043   -5.195884   8.261913 O.2        1 UNL1     -0.2917
     26 O         -4.162409   -5.396   5.644934 O.3        1 UNL1     -0.5058
     27 O         0.406938   -0.918049   2.354043 O.3        1 UNL1     -0.3648
     28 O         0.160836   -1.68217   -1.164157 O.3        1 UNL1     -0.3841
     29 O         -2.456389   0.184008   0.422778 O.3        1 UNL1     -0.3863
     30 O         -2.348226   -3.340668   -0.609245 O.3        1 UNL1     -0.3829
     31 H         1.093049   -2.213995   1.002095 H        1 UNL1     0.0937
     32 H         0.0   0.0   0.0 H        1 UNL1     0.0671
     33 H         -2.12973   -0.922052   -1.23664 H        1 UNL1     0.0649
     34 H         -3.668096   -2.130205   0.393082 H        1 UNL1     0.0683
     35 H         -2.505398   -3.711134   1.863812 H        1 UNL1     0.1085
     36 H         -3.779851   -4.238037   3.404381 H        1 UNL1     0.0691
     37 H         -1.619597   -0.864859   5.012227 H        1 UNL1     0.0691
     38 H         -1.045276   -3.821447   8.846463 H        1 UNL1     0.0385
     39 H         -2.396098   -3.777029   9.99618 H        1 UNL1     0.0385
     40 H         -1.466005   -1.495535   9.449318 H        1 UNL1     0.0789
     41 H         -4.467438   -3.350202   9.457583 H        1 UNL1     0.0623
     42 H         -6.70025   -2.465696   10.000152 H        1 UNL1     0.0654
     43 H         -5.233206   1.54613   9.550242 H        1 UNL1     0.0654
     44 H         -3.009634   0.704227   9.047372 H        1 UNL1     0.0623
     45 H         -7.463976   0.108732   11.027058 H        1 UNL1     0.2921
     46 H         -3.722381   -5.950209   6.308742 H        1 UNL1     0.2922
     47 H         -0.38781   -0.780775   2.888263 H        1 UNL1     0.2126
     48 H         -0.461067   -2.397998   -1.397737 H        1 UNL1     0.2101
     49 H         -2.794526   -0.013862   1.310643 H        1 UNL1     0.2100
     50 H         -2.847271   -3.132449   -1.426137 H        1 UNL1     0.2102
@<TRIPOS>BOND
     1     1     2    1
     2     1     6    1
     3     2     3    1
     4     3     4    1
     5     3    29    1
     6     3    33    1
     7     4     5    1
     8     5     6    1
     9     5     7    1
    10     5    35    1
    11     7     8    1
    12     8     9   ar
    13     8    13   ar
    14     9    10   ar
    15     9    36    1
    16    10    11   ar
    17    10    26    1
    18    11    12   ar
    19    11    14    1
    20    12    13   ar
    21    12    17    1
    22    13    37    1
    23    14    15    1
    24    14    25    2
    25    15    16    1
    26    15    38    1
    27    15    39    1
    28    16    17    1
    29    16    18    1
    30    16    40    1
    31    18    19   ar
    32    18    23   ar
    33    19    20   ar
    34    19    41    1
    35    20    21   ar
    36    20    42    1
    37    21    22   ar
    38    21    24    1
    39    22    23   ar
    40    22    43    1
    41    23    44    1
    42    24    45    1
    43    26    46    1
    44    27    47    1
    45    28    48    1
    46    29    49    1
    47    30    50    1
    48     1    31    1
    49     1    27    1
    50     2    32    1
    51     2    28    1
    52     4    34    1
    53     4    30    1
