@<TRIPOS>MOLECULE
*****
 50 53 0 0 0
SMALL
GASTEIGER

@<TRIPOS>ATOM
     1 C         -0.323119   -1.362512   1.676293 C.3        1 UNL1     0.1889
     2 C         -0.464403   -0.977676   0.179002 C.3        1 UNL1     0.1342
     3 C         -1.909419   -0.948991   -0.342121 C.3        1 UNL1     0.1174
     4 C         -2.794227   -2.018768   0.302711 C.3        1 UNL1     0.1456
     5 C         -2.630403   -2.0767   1.832472 C.3        1 UNL1     0.2326
     6 O         -1.263541   -2.306772   2.166573 O.3        1 UNL1     -0.3076
     7 O         -3.195909   -0.941573   2.512921 O.3        1 UNL1     -0.4605
     8 C         -3.706669   -1.184195   3.775374 C.ar        1 UNL1     0.1310
     9 C         -4.531251   -2.259611   4.123005 C.ar        1 UNL1     0.0226
     10 C         -4.984643   -2.428853   5.436662 C.ar        1 UNL1     0.1343
     11 C         -4.604623   -1.539134   6.440566 C.ar        1 UNL1     0.1007
     12 C         -3.815035   -0.438443   6.097325 C.ar        1 UNL1     0.1389
     13 C         -3.361449   -0.267026   4.775845 C.ar        1 UNL1     0.0229
     14 C         -4.985703   -1.717025   7.860878 C.2        1 UNL1     0.1740
     15 C         -4.308843   -0.7978   8.834755 C.3        1 UNL1     0.0520
     16 C         -4.229088   0.589354   8.212341 C.3        1 UNL1     0.1322
     17 O         -3.4716   0.556836   6.982615 O.3        1 UNL1     -0.4828
     18 C         -5.582909   1.295304   8.104984 C.ar        1 UNL1     -0.0067
     19 C         -5.950615   1.906706   6.888763 C.ar        1 UNL1     -0.0516
     20 C         -7.16047   2.601196   6.77088 C.ar        1 UNL1     -0.0198
     21 C         -8.006003   2.697514   7.861579 C.ar        1 UNL1     0.1169
     22 C         -7.687054   2.077607   9.062756 C.ar        1 UNL1     -0.0198
     23 C         -6.485819   1.367406   9.175474 C.ar        1 UNL1     -0.0516
     24 O         -9.157995   3.413991   7.72024 O.3        1 UNL1     -0.5068
     25 O         -5.741195   -2.602717   8.252371 O.2        1 UNL1     -0.2917
     26 O         -5.787183   -3.497939   5.709736 O.3        1 UNL1     -0.5058
     27 O         -0.206923   -0.242506   2.539352 O.3        1 UNL1     -0.3648
     28 O         0.25641   -1.942453   -0.609884 O.3        1 UNL1     -0.3841
     29 O         -2.461444   0.364671   -0.23399 O.3        1 UNL1     -0.3863
     30 O         -2.455624   -3.309541   -0.249505 O.3        1 UNL1     -0.3829
     31 H         0.636599   -1.881089   1.776787 H        1 UNL1     0.0937
     32 H         0.0   0.0   0.0 H        1 UNL1     0.0671
     33 H         -1.881894   -1.166169   -1.41906 H        1 UNL1     0.0649
     34 H         -3.845721   -1.831454   0.058429 H        1 UNL1     0.0683
     35 H         -3.185901   -2.976844   2.124093 H        1 UNL1     0.1085
     36 H         -4.816167   -3.016512   3.400479 H        1 UNL1     0.0691
     37 H         -2.748757   0.59883   4.534194 H        1 UNL1     0.0691
     38 H         -3.309493   -1.200771   9.030819 H        1 UNL1     0.0385
     39 H         -4.86835   -0.79755   9.776419 H        1 UNL1     0.0385
     40 H         -3.628759   1.213362   8.888166 H        1 UNL1     0.0789
     41 H         -5.300049   1.853228   6.020687 H        1 UNL1     0.0623
     42 H         -7.427252   3.078495   5.831186 H        1 UNL1     0.0654
     43 H         -8.348931   2.133996   9.918705 H        1 UNL1     0.0654
     44 H         -6.273558   0.886596   10.125533 H        1 UNL1     0.0623
     45 H         -8.923834   4.335914   7.52545 H        1 UNL1     0.2921
     46 H         -5.387668   -4.030428   6.415608 H        1 UNL1     0.2922
     47 H         0.529821   0.319423   2.261315 H        1 UNL1     0.2126
     48 H         1.196507   -1.863965   -0.35732 H        1 UNL1     0.2101
     49 H         -2.031527   0.956796   -0.871448 H        1 UNL1     0.2100
     50 H         -2.701786   -3.305797   -1.197715 H        1 UNL1     0.2102
@<TRIPOS>BOND
     1     1     2    1
     2     1     6    1
     3     2     3    1
     4     3     4    1
     5     3    29    1
     6     3    33    1
     7     4     5    1
     8     5     6    1
     9     5     7    1
    10     5    35    1
    11     7     8    1
    12     8     9   ar
    13     8    13   ar
    14     9    10   ar
    15     9    36    1
    16    10    11   ar
    17    10    26    1
    18    11    12   ar
    19    11    14    1
    20    12    13   ar
    21    12    17    1
    22    13    37    1
    23    14    15    1
    24    14    25    2
    25    15    16    1
    26    15    38    1
    27    15    39    1
    28    16    17    1
    29    16    18    1
    30    16    40    1
    31    18    19   ar
    32    18    23   ar
    33    19    20   ar
    34    19    41    1
    35    20    21   ar
    36    20    42    1
    37    21    22   ar
    38    21    24    1
    39    22    23   ar
    40    22    43    1
    41    23    44    1
    42    24    45    1
    43    26    46    1
    44    27    47    1
    45    28    48    1
    46    29    49    1
    47    30    50    1
    48     1    31    1
    49     1    27    1
    50     2    32    1
    51     2    28    1
    52     4    34    1
    53     4    30    1
