@<TRIPOS>MOLECULE
*****
 50 53 0 0 0
SMALL
GASTEIGER

@<TRIPOS>ATOM
     1 C         -0.338869   -1.333129   1.696684 C.3        1 UNL1     0.1889
     2 C         -0.465745   -0.974649   0.191582 C.3        1 UNL1     0.1342
     3 C         -1.90564   -0.955894   -0.343969 C.3        1 UNL1     0.1174
     4 C         -2.796261   -2.014706   0.310881 C.3        1 UNL1     0.1456
     5 C         -2.647288   -2.045751   1.842941 C.3        1 UNL1     0.2326
     6 O         -1.283648   -2.26918   2.194274 O.3        1 UNL1     -0.3076
     7 O         -3.219814   -0.899196   2.497881 O.3        1 UNL1     -0.4605
     8 C         -3.732539   -1.1175   3.763971 C.ar        1 UNL1     0.1310
     9 C         -4.552898   -2.18924   4.132324 C.ar        1 UNL1     0.0226
     10 C         -5.008727   -2.332825   5.448191 C.ar        1 UNL1     0.1343
     11 C         -4.635383   -1.420276   6.433943 C.ar        1 UNL1     0.1007
     12 C         -3.850147   -0.32334   6.069361 C.ar        1 UNL1     0.1389
     13 C         -3.394115   -0.177745   4.745629 C.ar        1 UNL1     0.0229
     14 C         -5.019124   -1.569908   7.856795 C.2        1 UNL1     0.1740
     15 C         -4.349009   -0.627081   8.812605 C.3        1 UNL1     0.0520
     16 C         -4.274257   0.746966   8.161173 C.3        1 UNL1     0.1322
     17 O         -3.513593   0.692061   6.934207 O.3        1 UNL1     -0.4828
     18 C         -5.631122   1.44403   8.0357 C.ar        1 UNL1     -0.0067
     19 C         -6.005056   2.014689   6.801708 C.ar        1 UNL1     -0.0516
     20 C         -7.217946   2.7005   6.665606 C.ar        1 UNL1     -0.0198
     21 C         -8.06036   2.828617   7.755446 C.ar        1 UNL1     0.1169
     22 C         -7.735197   2.248792   8.974836 C.ar        1 UNL1     -0.0198
     23 C         -6.530883   1.54708   9.106309 C.ar        1 UNL1     -0.0516
     24 O         -9.215546   3.535868   7.595002 O.3        1 UNL1     -0.5068
     25 O         -5.771397   -2.450713   8.265149 O.2        1 UNL1     -0.2917
     26 O         -5.806891   -3.399709   5.741922 O.3        1 UNL1     -0.5058
     27 O         -0.231495   -0.198117   2.541081 O.3        1 UNL1     -0.3648
     28 O         0.26307   -1.952692   -0.57325 O.3        1 UNL1     -0.3841
     29 O         -2.459194   0.359154   -0.264228 O.3        1 UNL1     -0.3863
     30 O         -2.451813   -3.314763   -0.215329 O.3        1 UNL1     -0.3829
     31 H         0.620026   -1.849335   1.815559 H        1 UNL1     0.0937
     32 H         0.0   0.0   0.0 H        1 UNL1     0.0671
     33 H         -1.867568   -1.191881   -1.41662 H        1 UNL1     0.0649
     34 H         -3.845404   -1.832281   0.053158 H        1 UNL1     0.0683
     35 H         -3.205247   -2.940958   2.144876 H        1 UNL1     0.1085
     36 H         -4.83246   -2.9626   3.425301 H        1 UNL1     0.0691
     37 H         -2.784917   0.685716   4.487164 H        1 UNL1     0.0691
     38 H         -3.348258   -1.02105   9.019516 H        1 UNL1     0.0385
     39 H         -4.910833   -0.609585   9.752726 H        1 UNL1     0.0385
     40 H         -3.678545   1.387978   8.825064 H        1 UNL1     0.0789
     41 H         -5.357062   1.935806   5.933646 H        1 UNL1     0.0623
     42 H         -7.489559   3.146383   5.711967 H        1 UNL1     0.0654
     43 H         -8.394552   2.330152   9.830722 H        1 UNL1     0.0654
     44 H         -6.313744   1.097818   10.070601 H        1 UNL1     0.0623
     45 H         -8.985925   4.446363   7.348043 H        1 UNL1     0.2921
     46 H         -5.406614   -3.915244   6.459846 H        1 UNL1     0.2922
     47 H         0.511945   0.355719   2.264637 H        1 UNL1     0.2126
     48 H         1.198513   -1.878965   -0.302614 H        1 UNL1     0.2101
     49 H         -2.017606   0.942323   -0.901964 H        1 UNL1     0.2100
     50 H         -2.68875   -3.32776   -1.165805 H        1 UNL1     0.2102
@<TRIPOS>BOND
     1     1     2    1
     2     1     6    1
     3     2     3    1
     4     3     4    1
     5     3    29    1
     6     3    33    1
     7     4     5    1
     8     5     6    1
     9     5     7    1
    10     5    35    1
    11     7     8    1
    12     8     9   ar
    13     8    13   ar
    14     9    10   ar
    15     9    36    1
    16    10    11   ar
    17    10    26    1
    18    11    12   ar
    19    11    14    1
    20    12    13   ar
    21    12    17    1
    22    13    37    1
    23    14    15    1
    24    14    25    2
    25    15    16    1
    26    15    38    1
    27    15    39    1
    28    16    17    1
    29    16    18    1
    30    16    40    1
    31    18    19   ar
    32    18    23   ar
    33    19    20   ar
    34    19    41    1
    35    20    21   ar
    36    20    42    1
    37    21    22   ar
    38    21    24    1
    39    22    23   ar
    40    22    43    1
    41    23    44    1
    42    24    45    1
    43    26    46    1
    44    27    47    1
    45    28    48    1
    46    29    49    1
    47    30    50    1
    48     1    31    1
    49     1    27    1
    50     2    32    1
    51     2    28    1
    52     4    34    1
    53     4    30    1
