@<TRIPOS>MOLECULE
*****
 50 53 0 0 0
SMALL
GASTEIGER

@<TRIPOS>ATOM
     1 C         -0.67423   -1.838933   0.966718 C.3        1 UNL1     0.1889
     2 C         0.000284   -1.077555   -0.206003 C.3        1 UNL1     0.1342
     3 C         -0.636974   -1.324851   -1.581944 C.3        1 UNL1     0.1174
     4 C         -1.163337   -2.753046   -1.744176 C.3        1 UNL1     0.1456
     5 C         -1.982565   -3.221873   -0.527858 C.3        1 UNL1     0.2326
     6 O         -1.194485   -3.123194   0.656229 O.3        1 UNL1     -0.3076
     7 O         -3.261047   -2.571098   -0.412547 O.3        1 UNL1     -0.4605
     8 C         -4.278402   -3.327231   0.14133 C.ar        1 UNL1     0.1310
     9 C         -4.577939   -4.652116   -0.193718 C.ar        1 UNL1     0.0226
     10 C         -5.620734   -5.340311   0.437843 C.ar        1 UNL1     0.1343
     11 C         -6.374739   -4.727388   1.437664 C.ar        1 UNL1     0.1007
     12 C         -6.11169   -3.391432   1.752006 C.ar        1 UNL1     0.1389
     13 C         -5.064829   -2.698833   1.114966 C.ar        1 UNL1     0.0229
     14 C         -7.43269   -5.434244   2.196115 C.2        1 UNL1     0.1740
     15 C         -7.98561   -4.696801   3.380178 C.3        1 UNL1     0.0520
     16 C         -8.137261   -3.228904   3.005698 C.3        1 UNL1     0.1322
     17 O         -6.860936   -2.657875   2.642394 O.3        1 UNL1     -0.4828
     18 C         -9.260625   -2.96222   2.000881 C.ar        1 UNL1     -0.0067
     19 C         -9.006227   -2.149069   0.877369 C.ar        1 UNL1     -0.0516
     20 C         -10.023594   -1.846532   -0.035538 C.ar        1 UNL1     -0.0198
     21 C         -11.298467   -2.343866   0.167399 C.ar        1 UNL1     0.1169
     22 C         -11.57191   -3.174701   1.246185 C.ar        1 UNL1     -0.0198
     23 C         -10.550297   -3.492454   2.149178 C.ar        1 UNL1     -0.0516
     24 O         -12.272606   -1.997015   -0.722067 O.3        1 UNL1     -0.5068
     25 O         -7.794985   -6.580219   1.943192 O.2        1 UNL1     -0.2917
     26 O         -5.862116   -6.630204   0.064351 O.3        1 UNL1     -0.5058
     27 O         -1.612069   -1.053693   1.685496 O.3        1 UNL1     -0.3648
     28 O         1.375629   -1.494848   -0.289655 O.3        1 UNL1     -0.3841
     29 O         -1.626703   -0.334451   -1.867732 O.3        1 UNL1     -0.3863
     30 O         -0.047326   -3.651416   -1.926221 O.3        1 UNL1     -0.3829
     31 H         0.114674   -2.051804   1.696372 H        1 UNL1     0.0937
     32 H         0.0   0.0   0.0 H        1 UNL1     0.0671
     33 H         0.143531   -1.185448   -2.342929 H        1 UNL1     0.0649
     34 H         -1.781909   -2.823491   -2.645735 H        1 UNL1     0.0683
     35 H         -2.145211   -4.290777   -0.714586 H        1 UNL1     0.1085
     36 H         -3.99309   -5.202085   -0.922831 H        1 UNL1     0.0691
     37 H         -4.881083   -1.659054   1.376863 H        1 UNL1     0.0691
     38 H         -7.279387   -4.822335   4.207837 H        1 UNL1     0.0385
     39 H         -8.938959   -5.150227   3.672254 H        1 UNL1     0.0385
     40 H         -8.429242   -2.690688   3.917614 H        1 UNL1     0.0789
     41 H         -8.016152   -1.738967   0.700681 H        1 UNL1     0.0623
     42 H         -9.817752   -1.208647   -0.891542 H        1 UNL1     0.0654
     43 H         -12.563113   -3.581861   1.406334 H        1 UNL1     0.0654
     44 H         -10.796902   -4.152958   2.974869 H        1 UNL1     0.0623
     45 H         -12.390545   -1.033884   -0.687624 H        1 UNL1     0.2921
     46 H         -5.81181   -7.207215   0.842771 H        1 UNL1     0.2922
     47 H         -1.197623   -0.235567   1.993334 H        1 UNL1     0.2126
     48 H         1.805354   -1.209727   0.539667 H        1 UNL1     0.2101
     49 H         -1.200158   0.523528   -2.021762 H        1 UNL1     0.2100
     50 H         0.37918   -3.433123   -2.780711 H        1 UNL1     0.2102
@<TRIPOS>BOND
     1     1     2    1
     2     1     6    1
     3     2     3    1
     4     3     4    1
     5     3    29    1
     6     3    33    1
     7     4     5    1
     8     5     6    1
     9     5     7    1
    10     5    35    1
    11     7     8    1
    12     8     9   ar
    13     8    13   ar
    14     9    10   ar
    15     9    36    1
    16    10    11   ar
    17    10    26    1
    18    11    12   ar
    19    11    14    1
    20    12    13   ar
    21    12    17    1
    22    13    37    1
    23    14    15    1
    24    14    25    2
    25    15    16    1
    26    15    38    1
    27    15    39    1
    28    16    17    1
    29    16    18    1
    30    16    40    1
    31    18    19   ar
    32    18    23   ar
    33    19    20   ar
    34    19    41    1
    35    20    21   ar
    36    20    42    1
    37    21    22   ar
    38    21    24    1
    39    22    23   ar
    40    22    43    1
    41    23    44    1
    42    24    45    1
    43    26    46    1
    44    27    47    1
    45    28    48    1
    46    29    49    1
    47    30    50    1
    48     1    31    1
    49     1    27    1
    50     2    32    1
    51     2    28    1
    52     4    34    1
    53     4    30    1
