@<TRIPOS>MOLECULE
*****
 50 53 0 0 0
SMALL
GASTEIGER

@<TRIPOS>ATOM
     1 C         -0.389285   -1.380717   1.647083 C.3        1 UNL1     0.1889
     2 C         -0.49167   -0.968575   0.1539 C.3        1 UNL1     0.1342
     3 C         -1.925041   -0.895659   -0.394366 C.3        1 UNL1     0.1174
     4 C         -2.848311   -1.953304   0.215614 C.3        1 UNL1     0.1456
     5 C         -2.716015   -2.039764   1.747079 C.3        1 UNL1     0.2326
     6 O         -1.362029   -2.309044   2.10356 O.3        1 UNL1     -0.3076
     7 O         -3.266751   -0.901972   2.435149 O.3        1 UNL1     -0.4605
     8 C         -3.835047   -1.157154   3.67024 C.ar        1 UNL1     0.1310
     9 C         -4.707929   -2.211863   3.958277 C.ar        1 UNL1     0.0226
     10 C         -5.218541   -2.396906   5.248602 C.ar        1 UNL1     0.1343
     11 C         -4.849501   -1.544885   6.288655 C.ar        1 UNL1     0.1007
     12 C         -4.010904   -0.463836   6.004277 C.ar        1 UNL1     0.1389
     13 C         -3.499716   -0.27644   4.706202 C.ar        1 UNL1     0.0229
     14 C         -5.292425   -1.743581   7.688117 C.2        1 UNL1     0.1740
     15 C         -4.624772   -0.871472   8.710475 C.3        1 UNL1     0.0520
     16 C         -4.47448   0.526637   8.126813 C.3        1 UNL1     0.1322
     17 O         -3.670193   0.497733   6.927081 O.3        1 UNL1     -0.4828
     18 C         -5.798862   1.280646   7.984666 C.ar        1 UNL1     -0.0067
     19 C         -5.784289   2.644981   7.628872 C.ar        1 UNL1     -0.0516
     20 C         -6.974685   3.376014   7.536605 C.ar        1 UNL1     -0.0198
     21 C         -8.182822   2.757469   7.804251 C.ar        1 UNL1     0.1169
     22 C         -8.23223   1.406947   8.124387 C.ar        1 UNL1     -0.0198
     23 C         -7.043483   0.671137   8.198702 C.ar        1 UNL1     -0.0516
     24 O         -9.318182   3.510726   7.741294 O.3        1 UNL1     -0.5068
     25 O         -6.091776   -2.612131   8.027442 O.2        1 UNL1     -0.2917
     26 O         -6.066238   -3.44426   5.46318 O.3        1 UNL1     -0.5058
     27 O         -0.262611   -0.277899   2.530561 O.3        1 UNL1     -0.3648
     28 O         0.220604   -1.938214   -0.636778 O.3        1 UNL1     -0.3841
     29 O         -2.446691   0.429415   -0.275228 O.3        1 UNL1     -0.3863
     30 O         -2.530701   -3.243089   -0.351192 O.3        1 UNL1     -0.3829
     31 H         0.555266   -1.92452   1.757449 H        1 UNL1     0.0937
     32 H         0.0   0.0   0.0 H        1 UNL1     0.0671
     33 H         -1.88172   -1.09619   -1.47401 H        1 UNL1     0.0649
     34 H         -3.889897   -1.736037   -0.045719 H        1 UNL1     0.0683
     35 H         -3.299043   -2.930379   2.013089 H        1 UNL1     0.1085
     36 H         -4.988784   -2.941143   3.206352 H        1 UNL1     0.0691
     37 H         -2.849587   0.573575   4.510496 H        1 UNL1     0.0691
     38 H         -3.647889   -1.312812   8.935073 H        1 UNL1     0.0385
     39 H         -5.22096   -0.874668   9.629349 H        1 UNL1     0.0385
     40 H         -3.881175   1.113512   8.841017 H        1 UNL1     0.0789
     41 H         -4.848195   3.15578   7.422807 H        1 UNL1     0.0623
     42 H         -6.949365   4.430459   7.272945 H        1 UNL1     0.0654
     43 H         -9.174134   0.908961   8.321204 H        1 UNL1     0.0654
     44 H         -7.120177   -0.384421   8.441107 H        1 UNL1     0.0623
     45 H         -9.070728   4.445956   7.823924 H        1 UNL1     0.2921
     46 H         -5.883456   -3.835649   6.331983 H        1 UNL1     0.2922
     47 H         -0.34844   -0.572333   3.448059 H        1 UNL1     0.2126
     48 H         1.171708   -1.786953   -0.47475 H        1 UNL1     0.2101
     49 H         -3.002342   0.495281   0.517683 H        1 UNL1     0.2100
     50 H         -2.779068   -3.225474   -1.298671 H        1 UNL1     0.2102
@<TRIPOS>BOND
     1     1     2    1
     2     1     6    1
     3     2     3    1
     4     3     4    1
     5     3    29    1
     6     3    33    1
     7     4     5    1
     8     5     6    1
     9     5     7    1
    10     5    35    1
    11     7     8    1
    12     8     9   ar
    13     8    13   ar
    14     9    10   ar
    15     9    36    1
    16    10    11   ar
    17    10    26    1
    18    11    12   ar
    19    11    14    1
    20    12    13   ar
    21    12    17    1
    22    13    37    1
    23    14    15    1
    24    14    25    2
    25    15    16    1
    26    15    38    1
    27    15    39    1
    28    16    17    1
    29    16    18    1
    30    16    40    1
    31    18    19   ar
    32    18    23   ar
    33    19    20   ar
    34    19    41    1
    35    20    21   ar
    36    20    42    1
    37    21    22   ar
    38    21    24    1
    39    22    23   ar
    40    22    43    1
    41    23    44    1
    42    24    45    1
    43    26    46    1
    44    27    47    1
    45    28    48    1
    46    29    49    1
    47    30    50    1
    48     1    31    1
    49     1    27    1
    50     2    32    1
    51     2    28    1
    52     4    34    1
    53     4    30    1
