@<TRIPOS>MOLECULE
*****
 50 53 0 0 0
SMALL
GASTEIGER

@<TRIPOS>ATOM
     1 C         -0.253466   -1.395498   1.661068 C.3        1 UNL1     0.1889
     2 C         -0.44483   -0.987354   0.175558 C.3        1 UNL1     0.1342
     3 C         -1.905007   -0.971206   -0.302025 C.3        1 UNL1     0.1174
     4 C         -2.754803   -2.064797   0.349913 C.3        1 UNL1     0.1456
     5 C         -2.544617   -2.146338   1.872916 C.3        1 UNL1     0.2326
     6 O         -1.165249   -2.361796   2.16238 O.3        1 UNL1     -0.3076
     7 O         -3.105752   -1.031464   2.589508 O.3        1 UNL1     -0.4605
     8 C         -3.564785   -1.300642   3.866364 C.ar        1 UNL1     0.1310
     9 C         -4.355604   -2.396275   4.228988 C.ar        1 UNL1     0.0226
     10 C         -4.7568   -2.591668   5.555926 C.ar        1 UNL1     0.1343
     11 C         -4.356644   -1.708211   6.557534 C.ar        1 UNL1     0.1007
     12 C         -3.601101   -0.588043   6.200936 C.ar        1 UNL1     0.1389
     13 C         -3.200042   -0.390368   4.866205 C.ar        1 UNL1     0.0229
     14 C         -4.681481   -1.912274   7.988266 C.2        1 UNL1     0.1740
     15 C         -3.986406   -0.9932   8.949371 C.3        1 UNL1     0.0520
     16 C         -3.955795   0.403383   8.343917 C.3        1 UNL1     0.1322
     17 O         -3.243872   0.401817   7.086843 O.3        1 UNL1     -0.4828
     18 C         -5.325674   1.084475   8.296284 C.ar        1 UNL1     -0.0067
     19 C         -5.755853   1.691822   7.098666 C.ar        1 UNL1     -0.0516
     20 C         -6.982157   2.364137   7.034375 C.ar        1 UNL1     -0.0198
     21 C         -7.782228   2.44229   8.160255 C.ar        1 UNL1     0.1169
     22 C         -7.401236   1.825576   9.344884 C.ar        1 UNL1     -0.0198
     23 C         -6.183475   1.137405   9.404332 C.ar        1 UNL1     -0.0516
     24 O         -8.952129   3.137712   8.070142 O.3        1 UNL1     -0.5068
     25 O         -5.405206   -2.817486   8.394833 O.2        1 UNL1     -0.2917
     26 O         -5.528475   -3.679557   5.84333 O.3        1 UNL1     -0.5058
     27 O         -0.127609   -0.288753   2.539738 O.3        1 UNL1     -0.3648
     28 O         0.265857   -1.927774   -0.651026 O.3        1 UNL1     -0.3841
     29 O         -2.472291   0.332104   -0.154693 O.3        1 UNL1     -0.3863
     30 O         -2.414397   -3.340822   -0.23453 O.3        1 UNL1     -0.3829
     31 H         0.716139   -1.901438   1.724066 H        1 UNL1     0.0937
     32 H         0.0   0.0   0.0 H        1 UNL1     0.0671
     33 H         -1.90651   -1.169581   -1.382934 H        1 UNL1     0.0649
     34 H         -3.815686   -1.888945   0.140141 H        1 UNL1     0.0683
     35 H         -3.078242   -3.059447   2.165074 H        1 UNL1     0.1085
     36 H         -4.652815   -3.148857   3.506903 H        1 UNL1     0.0691
     37 H         -2.613074   0.490271   4.614335 H        1 UNL1     0.0691
     38 H         -2.973096   -1.379406   9.102911 H        1 UNL1     0.0385
     39 H         -4.510577   -1.016248   9.910876 H        1 UNL1     0.0385
     40 H         -3.342678   1.029808   9.005883 H        1 UNL1     0.0789
     41 H         -5.141871   1.652384   6.203612 H        1 UNL1     0.0623
     42 H         -7.297315   2.838622   6.108335 H        1 UNL1     0.0654
     43 H         -8.027086   1.867743   10.228312 H        1 UNL1     0.0654
     44 H         -5.922273   0.65838   10.343031 H        1 UNL1     0.0623
     45 H         -8.745073   4.057511   7.838165 H        1 UNL1     0.2921
     46 H         -5.092518   -4.214315   6.525523 H        1 UNL1     0.2922
     47 H         0.598632   0.283598   2.2554 H        1 UNL1     0.2126
     48 H         1.208116   -1.861925   -0.402945 H        1 UNL1     0.2101
     49 H         -2.064164   0.943243   -0.788519 H        1 UNL1     0.2100
     50 H         -2.683612   -3.322542   -1.176285 H        1 UNL1     0.2102
@<TRIPOS>BOND
     1     1     2    1
     2     1     6    1
     3     2     3    1
     4     3     4    1
     5     3    29    1
     6     3    33    1
     7     4     5    1
     8     5     6    1
     9     5     7    1
    10     5    35    1
    11     7     8    1
    12     8     9   ar
    13     8    13   ar
    14     9    10   ar
    15     9    36    1
    16    10    11   ar
    17    10    26    1
    18    11    12   ar
    19    11    14    1
    20    12    13   ar
    21    12    17    1
    22    13    37    1
    23    14    15    1
    24    14    25    2
    25    15    16    1
    26    15    38    1
    27    15    39    1
    28    16    17    1
    29    16    18    1
    30    16    40    1
    31    18    19   ar
    32    18    23   ar
    33    19    20   ar
    34    19    41    1
    35    20    21   ar
    36    20    42    1
    37    21    22   ar
    38    21    24    1
    39    22    23   ar
    40    22    43    1
    41    23    44    1
    42    24    45    1
    43    26    46    1
    44    27    47    1
    45    28    48    1
    46    29    49    1
    47    30    50    1
    48     1    31    1
    49     1    27    1
    50     2    32    1
    51     2    28    1
    52     4    34    1
    53     4    30    1
