@<TRIPOS>MOLECULE
*****
 50 53 0 0 0
SMALL
GASTEIGER

@<TRIPOS>ATOM
     1 C         0.714226   -1.701474   1.168619 C.3        1 UNL1     0.1889
     2 C         -0.425636   -0.81616   0.59689 C.3        1 UNL1     0.1342
     3 C         -1.369517   -0.223924   1.654628 C.3        1 UNL1     0.1174
     4 C         -1.596436   -1.164454   2.840811 C.3        1 UNL1     0.1456
     5 C         -0.285081   -1.771616   3.371908 C.3        1 UNL1     0.2326
     6 O         0.390618   -2.462028   2.323275 O.3        1 UNL1     -0.3076
     7 O         0.551978   -0.820322   4.054326 O.3        1 UNL1     -0.4605
     8 C         1.864732   -1.205304   4.259251 C.ar        1 UNL1     0.1310
     9 C         2.560827   -1.09984   5.468229 C.ar        1 UNL1     0.0226
     10 C         3.886872   -1.534556   5.580163 C.ar        1 UNL1     0.1343
     11 C         4.541934   -2.107751   4.491042 C.ar        1 UNL1     0.1007
     12 C         3.870774   -2.180816   3.267528 C.ar        1 UNL1     0.1389
     13 C         2.538326   -1.741218   3.154539 C.ar        1 UNL1     0.0229
     14 C         5.913706   -2.660187   4.575957 C.2        1 UNL1     0.1740
     15 C         6.376535   -3.436004   3.377856 C.3        1 UNL1     0.0520
     16 C         5.896936   -2.717711   2.124063 C.3        1 UNL1     0.1322
     17 O         4.455253   -2.626865   2.104905 O.3        1 UNL1     -0.4828
     18 C         6.619501   -1.39506   1.857194 C.ar        1 UNL1     -0.0067
     19 C         7.357056   -1.236938   0.665883 C.ar        1 UNL1     -0.0516
     20 C         8.068336   -0.058018   0.412522 C.ar        1 UNL1     -0.0198
     21 C         8.056039   0.964937   1.343779 C.ar        1 UNL1     0.1169
     22 C         7.311931   0.852121   2.511004 C.ar        1 UNL1     -0.0198
     23 C         6.585624   -0.319385   2.756176 C.ar        1 UNL1     -0.0516
     24 O         8.791238   2.083056   1.079785 O.3        1 UNL1     -0.5068
     25 O         6.616771   -2.573048   5.579247 O.2        1 UNL1     -0.2917
     26 O         4.509633   -1.402603   6.786953 O.3        1 UNL1     -0.5058
     27 O         1.943144   -1.009911   1.324464 O.3        1 UNL1     -0.3648
     28 O         -1.226166   -1.619679   -0.289798 O.3        1 UNL1     -0.3841
     29 O         -0.930717   1.075818   2.054951 O.3        1 UNL1     -0.3863
     30 O         -2.47319   -2.237406   2.43367 O.3        1 UNL1     -0.3829
     31 H         0.927939   -2.463806   0.411482 H        1 UNL1     0.0937
     32 H         0.0   0.0   0.0 H        1 UNL1     0.0671
     33 H         -2.348725   -0.068157   1.1807 H        1 UNL1     0.0649
     34 H         -2.101306   -0.628264   3.651987 H        1 UNL1     0.0683
     35 H         -0.617272   -2.530616   4.091246 H        1 UNL1     0.1085
     36 H         2.089482   -0.714934   6.365894 H        1 UNL1     0.0691
     37 H         2.038415   -1.807979   2.190628 H        1 UNL1     0.0691
     38 H         5.945396   -4.440431   3.446937 H        1 UNL1     0.0385
     39 H         7.467443   -3.529085   3.410018 H        1 UNL1     0.0385
     40 H         6.142886   -3.361001   1.268372 H        1 UNL1     0.0789
     41 H         7.39005   -2.028787   -0.076772 H        1 UNL1     0.0623
     42 H         8.64296   0.047152   -0.504407 H        1 UNL1     0.0654
     43 H         7.283175   1.65304   3.240122 H        1 UNL1     0.0654
     44 H         6.006801   -0.369107   3.67342 H        1 UNL1     0.0623
     45 H         9.708427   1.813876   0.909422 H        1 UNL1     0.2921
     46 H         5.145208   -0.670707   6.744707 H        1 UNL1     0.2922
     47 H         2.163131   -0.531137   0.513144 H        1 UNL1     0.2126
     48 H         -0.642797   -2.324005   -0.632344 H        1 UNL1     0.2101
     49 H         0.032451   1.143531   1.957407 H        1 UNL1     0.2100
     50 H         -3.362852   -1.857556   2.278983 H        1 UNL1     0.2102
@<TRIPOS>BOND
     1     1     2    1
     2     1     6    1
     3     2     3    1
     4     3     4    1
     5     3    29    1
     6     3    33    1
     7     4     5    1
     8     5     6    1
     9     5     7    1
    10     5    35    1
    11     7     8    1
    12     8     9   ar
    13     8    13   ar
    14     9    10   ar
    15     9    36    1
    16    10    11   ar
    17    10    26    1
    18    11    12   ar
    19    11    14    1
    20    12    13   ar
    21    12    17    1
    22    13    37    1
    23    14    15    1
    24    14    25    2
    25    15    16    1
    26    15    38    1
    27    15    39    1
    28    16    17    1
    29    16    18    1
    30    16    40    1
    31    18    19   ar
    32    18    23   ar
    33    19    20   ar
    34    19    41    1
    35    20    21   ar
    36    20    42    1
    37    21    22   ar
    38    21    24    1
    39    22    23   ar
    40    22    43    1
    41    23    44    1
    42    24    45    1
    43    26    46    1
    44    27    47    1
    45    28    48    1
    46    29    49    1
    47    30    50    1
    48     1    31    1
    49     1    27    1
    50     2    32    1
    51     2    28    1
    52     4    34    1
    53     4    30    1
