@<TRIPOS>MOLECULE
*****
 50 53 0 0 0
SMALL
GASTEIGER

@<TRIPOS>ATOM
     1 C         -0.29393   -1.363218   1.681085 C.3        1 UNL1     0.1889
     2 C         -0.454397   -0.981256   0.184992 C.3        1 UNL1     0.1342
     3 C         -1.905097   -0.96504   -0.320649 C.3        1 UNL1     0.1174
     4 C         -2.774116   -2.04132   0.334747 C.3        1 UNL1     0.1456
     5 C         -2.593454   -2.096166   1.862725 C.3        1 UNL1     0.2326
     6 O         -1.221246   -2.314617   2.182402 O.3        1 UNL1     -0.3076
     7 O         -3.160965   -0.964953   2.548005 O.3        1 UNL1     -0.4605
     8 C         -3.645907   -1.207869   3.820543 C.ar        1 UNL1     0.1310
     9 C         -4.450473   -2.291856   4.187891 C.ar        1 UNL1     0.0226
     10 C         -4.87807   -2.460432   5.510255 C.ar        1 UNL1     0.1343
     11 C         -4.491385   -1.561178   6.503058 C.ar        1 UNL1     0.1007
     12 C         -3.722045   -0.452336   6.140611 C.ar        1 UNL1     0.1389
     13 C         -3.294423   -0.281621   4.810413 C.ar        1 UNL1     0.0229
     14 C         -4.844667   -1.736979   7.930798 C.2        1 UNL1     0.1740
     15 C         -4.162124   -0.804644   8.888104 C.3        1 UNL1     0.0520
     16 C         -4.111069   0.580382   8.257981 C.3        1 UNL1     0.1322
     17 O         -3.375397   0.551436   7.014993 O.3        1 UNL1     -0.4828
     18 C         -5.475408   1.268762   8.171743 C.ar        1 UNL1     -0.0067
     19 C         -5.878841   1.856617   6.955239 C.ar        1 UNL1     -0.0516
     20 C         -7.099373   2.535048   6.855255 C.ar        1 UNL1     -0.0198
     21 C         -7.920191   2.638691   7.964012 C.ar        1 UNL1     0.1169
     22 C         -7.565747   2.041528   9.166762 C.ar        1 UNL1     -0.0198
     23 C         -6.353766   1.347208   9.262031 C.ar        1 UNL1     -0.0516
     24 O         -9.083693   3.339408   7.838873 O.3        1 UNL1     -0.5068
     25 O         -5.58177   -2.630182   8.339885 O.2        1 UNL1     -0.2917
     26 O         -5.662016   -3.538173   5.802635 O.3        1 UNL1     -0.5058
     27 O         -0.177723   -0.241314   2.541676 O.3        1 UNL1     -0.3648
     28 O         0.265845   -1.940971   -0.610561 O.3        1 UNL1     -0.3841
     29 O         -2.466726   0.344163   -0.207985 O.3        1 UNL1     -0.3863
     30 O         -2.430832   -3.329893   -0.219713 O.3        1 UNL1     -0.3829
     31 H         0.671045   -1.873774   1.771834 H        1 UNL1     0.0937
     32 H         0.0   0.0   0.0 H        1 UNL1     0.0671
     33 H         -1.887317   -1.183207   -1.397592 H        1 UNL1     0.0649
     34 H         -3.829672   -1.862932   0.10155 H        1 UNL1     0.0683
     35 H         -3.13837   -3.000513   2.161224 H        1 UNL1     0.1085
     36 H         -4.738711   -3.055752   3.474097 H        1 UNL1     0.0691
     37 H         -2.697148   0.590678   4.553801 H        1 UNL1     0.0691
     38 H         -3.154409   -1.194091   9.068015 H        1 UNL1     0.0385
     39 H         -4.70462   -0.806869   9.839667 H        1 UNL1     0.0385
     40 H         -3.506653   1.215128   8.920021 H        1 UNL1     0.0789
     41 H         -5.248217   1.797045   6.072961 H        1 UNL1     0.0623
     42 H         -7.393824   2.994355   5.914858 H        1 UNL1     0.0654
     43 H         -8.207999   2.103688   10.037141 H        1 UNL1     0.0654
     44 H         -6.113531   0.88392   10.214132 H        1 UNL1     0.0623
     45 H         -8.86638   4.253525   7.594165 H        1 UNL1     0.2921
     46 H         -5.242541   -4.062949   6.50268 H        1 UNL1     0.2922
     47 H         0.557442   0.321317   2.260892 H        1 UNL1     0.2126
     48 H         1.203618   -1.876283   -0.345744 H        1 UNL1     0.2101
     49 H         -2.042719   0.941086   -0.844926 H        1 UNL1     0.2100
     50 H         -2.68197   -3.327271   -1.166621 H        1 UNL1     0.2102
@<TRIPOS>BOND
     1     1     2    1
     2     1     6    1
     3     2     3    1
     4     3     4    1
     5     3    29    1
     6     3    33    1
     7     4     5    1
     8     5     6    1
     9     5     7    1
    10     5    35    1
    11     7     8    1
    12     8     9   ar
    13     8    13   ar
    14     9    10   ar
    15     9    36    1
    16    10    11   ar
    17    10    26    1
    18    11    12   ar
    19    11    14    1
    20    12    13   ar
    21    12    17    1
    22    13    37    1
    23    14    15    1
    24    14    25    2
    25    15    16    1
    26    15    38    1
    27    15    39    1
    28    16    17    1
    29    16    18    1
    30    16    40    1
    31    18    19   ar
    32    18    23   ar
    33    19    20   ar
    34    19    41    1
    35    20    21   ar
    36    20    42    1
    37    21    22   ar
    38    21    24    1
    39    22    23   ar
    40    22    43    1
    41    23    44    1
    42    24    45    1
    43    26    46    1
    44    27    47    1
    45    28    48    1
    46    29    49    1
    47    30    50    1
    48     1    31    1
    49     1    27    1
    50     2    32    1
    51     2    28    1
    52     4    34    1
    53     4    30    1
