@<TRIPOS>MOLECULE
*****
 50 53 0 0 0
SMALL
GASTEIGER

@<TRIPOS>ATOM
     1 C         -0.714511   -2.006369   -0.484523 C.3        1 UNL1     0.1889
     2 C         -0.173619   -0.951487   0.517775 C.3        1 UNL1     0.1342
     3 C         1.111348   -1.364226   1.25192 C.3        1 UNL1     0.1174
     4 C         1.168377   -2.864419   1.55073 C.3        1 UNL1     0.1456
     5 C         0.782038   -3.723853   0.333159 C.3        1 UNL1     0.2326
     6 O         -0.521056   -3.365356   -0.121036 O.3        1 UNL1     -0.3076
     7 O         1.769508   -3.711406   -0.713775 O.3        1 UNL1     -0.4605
     8 C         1.878721   -4.872375   -1.457919 C.ar        1 UNL1     0.1310
     9 C         2.238269   -6.127032   -0.954072 C.ar        1 UNL1     0.0226
     10 C         2.304689   -7.249783   -1.787691 C.ar        1 UNL1     0.1343
     11 C         1.989722   -7.149765   -3.142178 C.ar        1 UNL1     0.1007
     12 C         1.669156   -5.894129   -3.665054 C.ar        1 UNL1     0.1389
     13 C         1.605012   -4.764854   -2.827168 C.ar        1 UNL1     0.0229
     14 C         1.962076   -8.319121   -4.051021 C.2        1 UNL1     0.1740
     15 C         1.388177   -8.068244   -5.414564 C.3        1 UNL1     0.0520
     16 C         1.874981   -6.709702   -5.899685 C.3        1 UNL1     0.1322
     17 O         1.447104   -5.661343   -5.002504 O.3        1 UNL1     -0.4828
     18 C         3.365043   -6.677529   -6.248116 C.ar        1 UNL1     -0.0067
     19 C         3.902572   -5.54106   -6.886642 C.ar        1 UNL1     -0.0516
     20 C         5.250701   -5.498201   -7.261705 C.ar        1 UNL1     -0.0198
     21 C         6.068082   -6.585796   -7.010998 C.ar        1 UNL1     0.1169
     22 C         5.575927   -7.705917   -6.353768 C.ar        1 UNL1     -0.0198
     23 C         4.232299   -7.741686   -5.962053 C.ar        1 UNL1     -0.0516
     24 O         7.366302   -6.522765   -7.424584 O.3        1 UNL1     -0.5068
     25 O         2.304679   -9.448344   -3.710488 O.2        1 UNL1     -0.2917
     26 O         2.662896   -8.444309   -1.234176 O.3        1 UNL1     -0.5058
     27 O         -0.325034   -1.76269   -1.826803 O.3        1 UNL1     -0.3648
     28 O         -1.181258   -0.714255   1.51832 O.3        1 UNL1     -0.3841
     29 O         2.266878   -0.894487   0.554619 O.3        1 UNL1     -0.3863
     30 O         0.265427   -3.165793   2.636799 O.3        1 UNL1     -0.3829
     31 H         -1.804462   -1.897024   -0.495925 H        1 UNL1     0.0937
     32 H         0.0   0.0   0.0 H        1 UNL1     0.0671
     33 H         1.124888   -0.846392   2.221138 H        1 UNL1     0.0649
     34 H         2.174607   -3.141337   1.884224 H        1 UNL1     0.0683
     35 H         0.709758   -4.740575   0.739276 H        1 UNL1     0.1085
     36 H         2.440442   -6.281573   0.10014 H        1 UNL1     0.0691
     37 H         1.354121   -3.798386   -3.259009 H        1 UNL1     0.0691
     38 H         0.296929   -8.087213   -5.32321 H        1 UNL1     0.0385
     39 H         1.689398   -8.879834   -6.085658 H        1 UNL1     0.0385
     40 H         1.351656   -6.495697   -6.841414 H        1 UNL1     0.0789
     41 H         3.279523   -4.678074   -7.102778 H        1 UNL1     0.0623
     42 H         5.650493   -4.620857   -7.764145 H        1 UNL1     0.0654
     43 H         6.21093   -8.557128   -6.139008 H        1 UNL1     0.0654
     44 H         3.884134   -8.628462   -5.441233 H        1 UNL1     0.0623
     45 H         7.435705   -5.843229   -8.114606 H        1 UNL1     0.2921
     46 H         2.073907   -9.142275   -1.561813 H        1 UNL1     0.2922
     47 H         0.524674   -2.186813   -2.011129 H        1 UNL1     0.2126
     48 H         -2.039696   -0.935822   1.108777 H        1 UNL1     0.2101
     49 H         2.635193   -1.607184   0.008541 H        1 UNL1     0.2100
     50 H         -0.536245   -3.580646   2.256103 H        1 UNL1     0.2102
@<TRIPOS>BOND
     1     1     2    1
     2     1     6    1
     3     2     3    1
     4     3     4    1
     5     3    29    1
     6     3    33    1
     7     4     5    1
     8     5     6    1
     9     5     7    1
    10     5    35    1
    11     7     8    1
    12     8     9   ar
    13     8    13   ar
    14     9    10   ar
    15     9    36    1
    16    10    11   ar
    17    10    26    1
    18    11    12   ar
    19    11    14    1
    20    12    13   ar
    21    12    17    1
    22    13    37    1
    23    14    15    1
    24    14    25    2
    25    15    16    1
    26    15    38    1
    27    15    39    1
    28    16    17    1
    29    16    18    1
    30    16    40    1
    31    18    19   ar
    32    18    23   ar
    33    19    20   ar
    34    19    41    1
    35    20    21   ar
    36    20    42    1
    37    21    22   ar
    38    21    24    1
    39    22    23   ar
    40    22    43    1
    41    23    44    1
    42    24    45    1
    43    26    46    1
    44    27    47    1
    45    28    48    1
    46    29    49    1
    47    30    50    1
    48     1    31    1
    49     1    27    1
    50     2    32    1
    51     2    28    1
    52     4    34    1
    53     4    30    1
