@<TRIPOS>MOLECULE
*****
 50 53 0 0 0
SMALL
GASTEIGER

@<TRIPOS>ATOM
     1 C         1.577084   0.292259   -1.482632 C.3        1 UNL1     0.1889
     2 C         0.49459   -0.578626   -0.790022 C.3        1 UNL1     0.1342
     3 C         1.015433   -1.895883   -0.195026 C.3        1 UNL1     0.1174
     4 C         2.141516   -2.517643   -1.024766 C.3        1 UNL1     0.1456
     5 C         3.214203   -1.489564   -1.4282 C.3        1 UNL1     0.2326
     6 O         2.612287   -0.416143   -2.148152 O.3        1 UNL1     -0.3076
     7 O         4.026664   -1.04635   -0.326025 O.3        1 UNL1     -0.4605
     8 C         4.685149   -2.037841   0.378867 C.ar        1 UNL1     0.1310
     9 C         5.730941   -2.82502   -0.115064 C.ar        1 UNL1     0.0226
     10 C         6.346799   -3.794997   0.684789 C.ar        1 UNL1     0.1343
     11 C         5.947282   -3.985137   2.006936 C.ar        1 UNL1     0.1007
     12 C         4.876705   -3.233496   2.498551 C.ar        1 UNL1     0.1389
     13 C         4.255876   -2.260089   1.693268 C.ar        1 UNL1     0.0229
     14 C         6.618504   -4.93706   2.922063 C.2        1 UNL1     0.1740
     15 C         6.207708   -4.852049   4.362747 C.3        1 UNL1     0.0520
     16 C         4.701702   -4.636777   4.422421 C.3        1 UNL1     0.1322
     17 O         4.331431   -3.413729   3.748534 O.3        1 UNL1     -0.4828
     18 C         3.88692   -5.863154   4.004267 C.ar        1 UNL1     -0.0067
     19 C         2.480906   -5.82758   4.104637 C.ar        1 UNL1     -0.0516
     20 C         1.708691   -6.947996   3.775526 C.ar        1 UNL1     -0.0198
     21 C         2.329578   -8.109721   3.352771 C.ar        1 UNL1     0.1169
     22 C         3.710135   -8.164785   3.211806 C.ar        1 UNL1     -0.0198
     23 C         4.481342   -7.038588   3.523215 C.ar        1 UNL1     -0.0516
     24 O         1.547423   -9.192659   3.077311 O.3        1 UNL1     -0.5068
     25 O         7.512963   -5.700052   2.566715 O.2        1 UNL1     -0.2917
     26 O         7.360311   -4.530105   0.142576 O.3        1 UNL1     -0.5058
     27 O         2.095414   1.317654   -0.650354 O.3        1 UNL1     -0.3648
     28 O         -0.510802   -0.916283   -1.763614 O.3        1 UNL1     -0.3841
     29 O         1.369093   -1.726721   1.17918 O.3        1 UNL1     -0.3863
     30 O         1.581963   -3.098852   -2.222592 O.3        1 UNL1     -0.3829
     31 H         1.073786   0.831162   -2.292788 H        1 UNL1     0.0937
     32 H         0.0   0.0   0.0 H        1 UNL1     0.0671
     33 H         0.185119   -2.615812   -0.196125 H        1 UNL1     0.0649
     34 H         2.613683   -3.331776   -0.463833 H        1 UNL1     0.0683
     35 H         3.848527   -2.034132   -2.138804 H        1 UNL1     0.1085
     36 H         6.124606   -2.687297   -1.116154 H        1 UNL1     0.0691
     37 H         3.423768   -1.688893   2.099256 H        1 UNL1     0.0691
     38 H         6.745161   -4.009709   4.811227 H        1 UNL1     0.0385
     39 H         6.5158   -5.76795   4.878481 H        1 UNL1     0.0385
     40 H         4.441425   -4.460012   5.474814 H        1 UNL1     0.0789
     41 H         1.970229   -4.930598   4.442695 H        1 UNL1     0.0623
     42 H         0.626067   -6.911926   3.868459 H        1 UNL1     0.0654
     43 H         4.20556   -9.064631   2.867219 H        1 UNL1     0.0654
     44 H         5.556434   -7.113635   3.391342 H        1 UNL1     0.0623
     45 H         0.967678   -9.354029   3.839265 H        1 UNL1     0.2921
     46 H         7.741122   -5.107458   0.82306 H        1 UNL1     0.2922
     47 H         1.544531   2.110393   -0.71322 H        1 UNL1     0.2126
     48 H         -0.910613   -1.758316   -1.472301 H        1 UNL1     0.2101
     49 H         2.32639   -1.588882   1.259025 H        1 UNL1     0.2100
     50 H         2.273809   -3.084966   -2.916039 H        1 UNL1     0.2102
@<TRIPOS>BOND
     1     1     2    1
     2     1     6    1
     3     2     3    1
     4     3     4    1
     5     3    29    1
     6     3    33    1
     7     4     5    1
     8     5     6    1
     9     5     7    1
    10     5    35    1
    11     7     8    1
    12     8     9   ar
    13     8    13   ar
    14     9    10   ar
    15     9    36    1
    16    10    11   ar
    17    10    26    1
    18    11    12   ar
    19    11    14    1
    20    12    13   ar
    21    12    17    1
    22    13    37    1
    23    14    15    1
    24    14    25    2
    25    15    16    1
    26    15    38    1
    27    15    39    1
    28    16    17    1
    29    16    18    1
    30    16    40    1
    31    18    19   ar
    32    18    23   ar
    33    19    20   ar
    34    19    41    1
    35    20    21   ar
    36    20    42    1
    37    21    22   ar
    38    21    24    1
    39    22    23   ar
    40    22    43    1
    41    23    44    1
    42    24    45    1
    43    26    46    1
    44    27    47    1
    45    28    48    1
    46    29    49    1
    47    30    50    1
    48     1    31    1
    49     1    27    1
    50     2    32    1
    51     2    28    1
    52     4    34    1
    53     4    30    1
