@<TRIPOS>MOLECULE
*****
 50 53 0 0 0
SMALL
GASTEIGER

@<TRIPOS>ATOM
     1 C         -0.174218   -1.240344   1.789413 C.3        1 UNL1     0.1889
     2 C         -0.373996   -0.995515   0.269516 C.3        1 UNL1     0.1342
     3 C         -1.824611   -1.134526   -0.217163 C.3        1 UNL1     0.1174
     4 C         -2.601383   -2.218611   0.53417 C.3        1 UNL1     0.1456
     5 C         -2.407201   -2.13424   2.059141 C.3        1 UNL1     0.2326
     6 O         -1.019984   -2.2175   2.377835 O.3        1 UNL1     -0.3076
     7 O         -3.058215   -0.998924   2.657939 O.3        1 UNL1     -0.4605
     8 C         -3.51425   -1.174499   3.952054 C.ar        1 UNL1     0.1310
     9 C         -4.227999   -2.284688   4.416104 C.ar        1 UNL1     0.0226
     10 C         -4.632446   -2.377835   5.753134 C.ar        1 UNL1     0.1343
     11 C         -4.311938   -1.373   6.664957 C.ar        1 UNL1     0.1007
     12 C         -3.635242   -0.240481   6.204234 C.ar        1 UNL1     0.1389
     13 C         -3.230989   -0.145846   4.859223 C.ar        1 UNL1     0.0229
     14 C         -4.64106   -1.458894   8.106642 C.2        1 UNL1     0.1740
     15 C         -4.028479   -0.400866   8.976625 C.3        1 UNL1     0.0520
     16 C         -4.091393   0.927842   8.235993 C.3        1 UNL1     0.1322
     17 O         -3.363683   0.855395   6.990096 O.3        1 UNL1     -0.4828
     18 C         -5.506528   1.497676   8.111864 C.ar        1 UNL1     -0.0067
     19 C         -5.96304   1.950819   6.857085 C.ar        1 UNL1     -0.0516
     20 C         -7.234122   2.520933   6.718219 C.ar        1 UNL1     -0.0198
     21 C         -8.053485   2.649961   7.825388 C.ar        1 UNL1     0.1169
     22 C         -7.645158   2.182603   9.067838 C.ar        1 UNL1     -0.0198
     23 C         -6.381369   1.595646   9.203399 C.ar        1 UNL1     -0.0516
     24 O         -9.269645   3.244641   7.658919 O.3        1 UNL1     -0.5068
     25 O         -5.302417   -2.370824   8.596003 O.2        1 UNL1     -0.2917
     26 O         -5.326614   -3.486318   6.141697 O.3        1 UNL1     -0.5058
     27 O         -0.141823   -0.046309   2.554931 O.3        1 UNL1     -0.3648
     28 O         0.414967   -1.957447   -0.455005 O.3        1 UNL1     -0.3841
     29 O         -2.487522   0.131371   -0.203525 O.3        1 UNL1     -0.3863
     30 O         -2.160579   -3.517199   0.081345 O.3        1 UNL1     -0.3829
     31 H         0.82875   -1.664474   1.908776 H        1 UNL1     0.0937
     32 H         0.0   0.0   0.0 H        1 UNL1     0.0671
     33 H         -1.796461   -1.437774   -1.273084 H        1 UNL1     0.0649
     34 H         -3.669223   -2.143246   0.300849 H        1 UNL1     0.0683
     35 H         -2.876801   -3.051183   2.436725 H        1 UNL1     0.1085
     36 H         -4.459323   -3.124542   3.77015 H        1 UNL1     0.0691
     37 H         -2.706388   0.746783   4.525305 H        1 UNL1     0.0691
     38 H         -2.991937   -0.694035   9.174512 H        1 UNL1     0.0385
     39 H         -4.563012   -0.368007   9.932121 H        1 UNL1     0.0385
     40 H         -3.534985   1.659969   8.836759 H        1 UNL1     0.0789
     41 H         -5.335316   1.869131   5.974509 H        1 UNL1     0.0623
     42 H         -7.570046   2.877439   5.747616 H        1 UNL1     0.0654
     43 H         -8.284752   2.264978   9.938496 H        1 UNL1     0.0654
     44 H         -6.0991   1.231886   10.186683 H        1 UNL1     0.0623
     45 H         -9.127042   4.149968   7.338351 H        1 UNL1     0.2921
     46 H         -4.862405   -3.917671   6.876446 H        1 UNL1     0.2922
     47 H         0.544624   0.547493   2.220192 H        1 UNL1     0.2126
     48 H         1.346332   -1.797963   -0.208314 H        1 UNL1     0.2101
     49 H         -2.116236   0.70576   -0.892015 H        1 UNL1     0.2100
     50 H         -2.417167   -3.611574   -0.859383 H        1 UNL1     0.2102
@<TRIPOS>BOND
     1     1     2    1
     2     1     6    1
     3     2     3    1
     4     3     4    1
     5     3    29    1
     6     3    33    1
     7     4     5    1
     8     5     6    1
     9     5     7    1
    10     5    35    1
    11     7     8    1
    12     8     9   ar
    13     8    13   ar
    14     9    10   ar
    15     9    36    1
    16    10    11   ar
    17    10    26    1
    18    11    12   ar
    19    11    14    1
    20    12    13   ar
    21    12    17    1
    22    13    37    1
    23    14    15    1
    24    14    25    2
    25    15    16    1
    26    15    38    1
    27    15    39    1
    28    16    17    1
    29    16    18    1
    30    16    40    1
    31    18    19   ar
    32    18    23   ar
    33    19    20   ar
    34    19    41    1
    35    20    21   ar
    36    20    42    1
    37    21    22   ar
    38    21    24    1
    39    22    23   ar
    40    22    43    1
    41    23    44    1
    42    24    45    1
    43    26    46    1
    44    27    47    1
    45    28    48    1
    46    29    49    1
    47    30    50    1
    48     1    31    1
    49     1    27    1
    50     2    32    1
    51     2    28    1
    52     4    34    1
    53     4    30    1
