@<TRIPOS>MOLECULE
*****
 50 53 0 0 0
SMALL
GASTEIGER

@<TRIPOS>ATOM
     1 C         -0.330515   -1.356   1.680127 C.3        1 UNL1     0.1889
     2 C         -0.466353   -0.976378   0.181003 C.3        1 UNL1     0.1342
     3 C         -1.909613   -0.947572   -0.34496 C.3        1 UNL1     0.1174
     4 C         -2.798025   -2.013785   0.300821 C.3        1 UNL1     0.1456
     5 C         -2.639295   -2.066419   1.83131 C.3        1 UNL1     0.2326
     6 O         -1.273858   -2.297178   2.170722 O.3        1 UNL1     -0.3076
     7 O         -3.205438   -0.928058   2.505801 O.3        1 UNL1     -0.4605
     8 C         -3.72067   -1.165411   3.767438 C.ar        1 UNL1     0.1310
     9 C         -4.54789   -2.23842   4.116238 C.ar        1 UNL1     0.0226
     10 C         -5.005819   -2.402288   5.429002 C.ar        1 UNL1     0.1343
     11 C         -4.627846   -1.509476   6.430932 C.ar        1 UNL1     0.1007
     12 C         -3.8356   -0.411129   6.086316 C.ar        1 UNL1     0.1389
     13 C         -3.377448   -0.245114   4.765722 C.ar        1 UNL1     0.0229
     14 C         -5.013826   -1.681708   7.850619 C.2        1 UNL1     0.1740
     15 C         -4.338876   -0.759912   8.823389 C.3        1 UNL1     0.0520
     16 C         -4.255142   0.624873   8.196241 C.3        1 UNL1     0.1322
     17 O         -3.493676   0.586864   6.969132 O.3        1 UNL1     -0.4828
     18 C         -5.607616   1.332307   8.081896 C.ar        1 UNL1     -0.0067
     19 C         -5.970479   1.939823   6.862278 C.ar        1 UNL1     -0.0516
     20 C         -7.178969   2.635559   6.737922 C.ar        1 UNL1     -0.0198
     21 C         -8.027936   2.736988   7.825486 C.ar        1 UNL1     0.1169
     22 C         -7.713791   2.120982   9.029932 C.ar        1 UNL1     -0.0198
     23 C         -6.513926   1.409527   9.149151 C.ar        1 UNL1     -0.0516
     24 O         -9.178455   3.454547   7.677785 O.3        1 UNL1     -0.5068
     25 O         -5.771835   -2.564932   8.242822 O.2        1 UNL1     -0.2917
     26 O         -5.810744   -3.469267   5.703296 O.3        1 UNL1     -0.5058
     27 O         -0.21558   -0.233046   2.539517 O.3        1 UNL1     -0.3648
     28 O         0.25569   -1.944996   -0.602029 O.3        1 UNL1     -0.3841
     29 O         -2.460152   0.367236   -0.243379 O.3        1 UNL1     -0.3863
     30 O         -2.45942   -3.307012   -0.245622 O.3        1 UNL1     -0.3829
     31 H         0.628143   -1.87554   1.78564 H        1 UNL1     0.0937
     32 H         0.0   0.0   0.0 H        1 UNL1     0.0671
     33 H         -1.878864   -1.168676   -1.421012 H        1 UNL1     0.0649
     34 H         -3.84845   -1.825897   0.052415 H        1 UNL1     0.0683
     35 H         -3.197003   -2.964732   2.124352 H        1 UNL1     0.1085
     36 H         -4.831496   -2.99753   3.395516 H        1 UNL1     0.0691
     37 H         -2.762757   0.619013   4.522961 H        1 UNL1     0.0691
     38 H         -3.340738   -1.163558   9.024183 H        1 UNL1     0.0385
     39 H         -4.901464   -0.755486   9.763205 H        1 UNL1     0.0385
     40 H         -3.656158   1.250484   8.871777 H        1 UNL1     0.0789
     41 H         -5.317149   1.882308   5.99654 H        1 UNL1     0.0623
     42 H         -7.442003   3.109832   5.795643 H        1 UNL1     0.0654
     43 H         -8.378389   2.181379   9.883496 H        1 UNL1     0.0654
     44 H         -6.305451   0.931858   10.10163 H        1 UNL1     0.0623
     45 H         -8.942368   4.375435   7.48044 H        1 UNL1     0.2921
     46 H         -5.41429   -3.999757   6.412391 H        1 UNL1     0.2922
     47 H         0.515944   0.332596   2.255295 H        1 UNL1     0.2126
     48 H         1.19659   -1.859079   -0.354933 H        1 UNL1     0.2101
     49 H         -2.027321   0.956459   -0.881554 H        1 UNL1     0.2100
     50 H         -2.702468   -3.306351   -1.194643 H        1 UNL1     0.2102
@<TRIPOS>BOND
     1     1     2    1
     2     1     6    1
     3     2     3    1
     4     3     4    1
     5     3    29    1
     6     3    33    1
     7     4     5    1
     8     5     6    1
     9     5     7    1
    10     5    35    1
    11     7     8    1
    12     8     9   ar
    13     8    13   ar
    14     9    10   ar
    15     9    36    1
    16    10    11   ar
    17    10    26    1
    18    11    12   ar
    19    11    14    1
    20    12    13   ar
    21    12    17    1
    22    13    37    1
    23    14    15    1
    24    14    25    2
    25    15    16    1
    26    15    38    1
    27    15    39    1
    28    16    17    1
    29    16    18    1
    30    16    40    1
    31    18    19   ar
    32    18    23   ar
    33    19    20   ar
    34    19    41    1
    35    20    21   ar
    36    20    42    1
    37    21    22   ar
    38    21    24    1
    39    22    23   ar
    40    22    43    1
    41    23    44    1
    42    24    45    1
    43    26    46    1
    44    27    47    1
    45    28    48    1
    46    29    49    1
    47    30    50    1
    48     1    31    1
    49     1    27    1
    50     2    32    1
    51     2    28    1
    52     4    34    1
    53     4    30    1
