@<TRIPOS>MOLECULE
*****
 50 53 0 0 0
SMALL
GASTEIGER

@<TRIPOS>ATOM
     1 C         -0.390873   -1.380864   1.646583 C.3        1 UNL1     0.1889
     2 C         -0.492366   -0.968291   0.153458 C.3        1 UNL1     0.1342
     3 C         -1.92546   -0.894306   -0.395388 C.3        1 UNL1     0.1174
     4 C         -2.849675   -1.951497   0.213948 C.3        1 UNL1     0.1456
     5 C         -2.718075   -2.038417   1.745447 C.3        1 UNL1     0.2326
     6 O         -1.364414   -2.308669   2.102427 O.3        1 UNL1     -0.3076
     7 O         -3.268355   -0.900434   2.433565 O.3        1 UNL1     -0.4605
     8 C         -3.837332   -1.155547   3.668357 C.ar        1 UNL1     0.1310
     9 C         -4.936222   -1.990613   3.897278 C.ar        1 UNL1     0.0226
     10 C         -5.429775   -2.199086   5.190665 C.ar        1 UNL1     0.1343
     11 C         -4.820954   -1.595685   6.290249 C.ar        1 UNL1     0.1007
     12 C         -3.748473   -0.72731   6.070036 C.ar        1 UNL1     0.1389
     13 C         -3.254054   -0.51578   4.769176 C.ar        1 UNL1     0.0229
     14 C         -5.248507   -1.847076   7.686012 C.2        1 UNL1     0.1740
     15 C         -4.346455   -1.295497   8.750724 C.3        1 UNL1     0.0520
     16 C         -3.870896   0.082895   8.31273 C.3        1 UNL1     0.1322
     17 O         -3.143776   0.002571   7.066972 O.3        1 UNL1     -0.4828
     18 C         -4.967529   1.150324   8.339473 C.ar        1 UNL1     -0.0067
     19 C         -4.622213   2.503075   8.1419 C.ar        1 UNL1     -0.0516
     20 C         -5.593426   3.509275   8.207235 C.ar        1 UNL1     -0.0198
     21 C         -6.909191   3.177169   8.47611 C.ar        1 UNL1     0.1169
     22 C         -7.285853   1.850734   8.642048 C.ar        1 UNL1     -0.0198
     23 C         -6.317991   0.84261   8.558469 C.ar        1 UNL1     -0.0516
     24 O         -7.820671   4.187541   8.569666 O.3        1 UNL1     -0.5068
     25 O         -6.227629   -2.527319   7.981096 O.2        1 UNL1     -0.2917
     26 O         -6.505122   -3.02439   5.345864 O.3        1 UNL1     -0.5058
     27 O         -0.263848   -0.278345   2.530383 O.3        1 UNL1     -0.3648
     28 O         0.219605   -1.938202   -0.63716 O.3        1 UNL1     -0.3841
     29 O         -2.446295   0.431079   -0.276144 O.3        1 UNL1     -0.3863
     30 O         -2.53267   -3.24135   -0.353041 O.3        1 UNL1     -0.3829
     31 H         0.553276   -1.925312   1.75721 H        1 UNL1     0.0937
     32 H         0.0   0.0   0.0 H        1 UNL1     0.0671
     33 H         -1.881819   -1.094602   -1.475063 H        1 UNL1     0.0649
     34 H         -3.89101   -1.733486   -0.047766 H        1 UNL1     0.0683
     35 H         -3.301795   -2.928717   2.010995 H        1 UNL1     0.1085
     36 H         -5.418444   -2.532382   3.09101 H        1 UNL1     0.0691
     37 H         -2.418709   0.165913   4.624304 H        1 UNL1     0.0691
     38 H         -3.504358   -1.986855   8.862178 H        1 UNL1     0.0385
     39 H         -4.890557   -1.263206   9.700824 H        1 UNL1     0.0385
     40 H         -3.123624   0.415566   9.045829 H        1 UNL1     0.0789
     41 H         -3.594774   2.790546   7.938479 H        1 UNL1     0.0623
     42 H         -5.312592   4.549892   8.064898 H        1 UNL1     0.0654
     43 H         -8.315986   1.57817   8.838122 H        1 UNL1     0.0654
     44 H         -6.649469   -0.183801   8.682762 H        1 UNL1     0.0623
     45 H         -7.344075   5.015425   8.743389 H        1 UNL1     0.2921
     46 H         -6.350099   -3.620195   6.095794 H        1 UNL1     0.2922
     47 H         -1.137823   0.041978   2.793863 H        1 UNL1     0.2126
     48 H         -0.329818   -2.114396   -1.425083 H        1 UNL1     0.2101
     49 H         -3.002234   0.497114   0.516551 H        1 UNL1     0.2100
     50 H         -2.005846   -3.739162   0.306013 H        1 UNL1     0.2102
@<TRIPOS>BOND
     1     1     2    1
     2     1     6    1
     3     2     3    1
     4     3     4    1
     5     3    29    1
     6     3    33    1
     7     4     5    1
     8     5     6    1
     9     5     7    1
    10     5    35    1
    11     7     8    1
    12     8     9   ar
    13     8    13   ar
    14     9    10   ar
    15     9    36    1
    16    10    11   ar
    17    10    26    1
    18    11    12   ar
    19    11    14    1
    20    12    13   ar
    21    12    17    1
    22    13    37    1
    23    14    15    1
    24    14    25    2
    25    15    16    1
    26    15    38    1
    27    15    39    1
    28    16    17    1
    29    16    18    1
    30    16    40    1
    31    18    19   ar
    32    18    23   ar
    33    19    20   ar
    34    19    41    1
    35    20    21   ar
    36    20    42    1
    37    21    22   ar
    38    21    24    1
    39    22    23   ar
    40    22    43    1
    41    23    44    1
    42    24    45    1
    43    26    46    1
    44    27    47    1
    45    28    48    1
    46    29    49    1
    47    30    50    1
    48     1    31    1
    49     1    27    1
    50     2    32    1
    51     2    28    1
    52     4    34    1
    53     4    30    1
