@<TRIPOS>MOLECULE
*****
 50 53 0 0 0
SMALL
GASTEIGER

@<TRIPOS>ATOM
     1 C         0.149247   2.129487   -0.462402 C.3        1 UNL1     0.1889
     2 C         0.582495   0.868248   0.332276 C.3        1 UNL1     0.1342
     3 C         0.461182   0.9988   1.858285 C.3        1 UNL1     0.1174
     4 C         0.767424   2.412446   2.359222 C.3        1 UNL1     0.1456
     5 C         0.057148   3.498834   1.531193 C.3        1 UNL1     0.2326
     6 O         0.419928   3.377955   0.15764 O.3        1 UNL1     -0.3076
     7 O         -1.366407   3.538896   1.739056 O.3        1 UNL1     -0.4605
     8 C         -2.065343   4.454584   0.973203 C.ar        1 UNL1     0.1310
     9 C         -1.506399   5.295377   0.004725 C.ar        1 UNL1     0.0226
     10 C         -2.302804   6.179441   -0.732888 C.ar        1 UNL1     0.1343
     11 C         -3.682278   6.227208   -0.536392 C.ar        1 UNL1     0.1007
     12 C         -4.24636   5.421856   0.456584 C.ar        1 UNL1     0.1389
     13 C         -3.444999   4.534922   1.199955 C.ar        1 UNL1     0.0229
     14 C         -4.581887   7.08152   -1.345718 C.2        1 UNL1     0.1740
     15 C         -6.050753   6.843138   -1.15296 C.3        1 UNL1     0.0520
     16 C         -6.311207   6.61406   0.329485 C.3        1 UNL1     0.1322
     17 O         -5.575552   5.466512   0.808041 O.3        1 UNL1     -0.4828
     18 C         -6.149971   7.87286   1.185143 C.ar        1 UNL1     -0.0067
     19 C         -4.856603   8.363496   1.458437 C.ar        1 UNL1     -0.0516
     20 C         -4.671584   9.484529   2.276371 C.ar        1 UNL1     -0.0198
     21 C         -5.768941   10.117939   2.831733 C.ar        1 UNL1     0.1169
     22 C         -7.056829   9.67855   2.554027 C.ar        1 UNL1     -0.0198
     23 C         -7.243062   8.56869   1.72121 C.ar        1 UNL1     -0.0516
     24 O         -5.547804   11.183651   3.653778 O.3        1 UNL1     -0.5068
     25 O         -4.179216   7.882813   -2.184926 O.2        1 UNL1     -0.2917
     26 O         -1.695736   6.973341   -1.661746 O.3        1 UNL1     -0.5058
     27 O         -1.182743   2.062903   -0.946301 O.3        1 UNL1     -0.3648
     28 O         1.963984   0.593647   0.034302 O.3        1 UNL1     -0.3841
     29 O         -0.805042   0.513903   2.309601 O.3        1 UNL1     -0.3863
     30 O         2.192396   2.63883   2.29682 O.3        1 UNL1     -0.3829
     31 H         0.764371   2.154903   -1.368523 H        1 UNL1     0.0937
     32 H         0.0   0.0   0.0 H        1 UNL1     0.0671
     33 H         1.207589   0.332104   2.312281 H        1 UNL1     0.0649
     34 H         0.473296   2.508685   3.410235 H        1 UNL1     0.0683
     35 H         0.494402   4.437018   1.895198 H        1 UNL1     0.1085
     36 H         -0.448978   5.265949   -0.234261 H        1 UNL1     0.0691
     37 H         -3.908277   3.919396   1.968065 H        1 UNL1     0.0691
     38 H         -6.323374   5.961446   -1.742725 H        1 UNL1     0.0385
     39 H         -6.607969   7.701513   -1.543447 H        1 UNL1     0.0385
     40 H         -7.366238   6.326129   0.432076 H        1 UNL1     0.0789
     41 H         -3.978557   7.878518   1.041927 H        1 UNL1     0.0623
     42 H         -3.668605   9.846076   2.489277 H        1 UNL1     0.0654
     43 H         -7.923929   10.176282   2.971532 H        1 UNL1     0.0654
     44 H         -8.263549   8.259183   1.51711 H        1 UNL1     0.0623
     45 H         -5.74865   10.915018   4.564939 H        1 UNL1     0.2921
     46 H         -2.029722   7.880616   -1.579786 H        1 UNL1     0.2922
     47 H         -1.306066   1.264601   -1.478621 H        1 UNL1     0.2126
     48 H         2.495708   1.141963   0.642868 H        1 UNL1     0.2101
     49 H         -1.157053   1.100889   2.99759 H        1 UNL1     0.2100
     50 H         2.618074   2.068377   2.969943 H        1 UNL1     0.2102
@<TRIPOS>BOND
     1     1     2    1
     2     1     6    1
     3     2     3    1
     4     3     4    1
     5     3    29    1
     6     3    33    1
     7     4     5    1
     8     5     6    1
     9     5     7    1
    10     5    35    1
    11     7     8    1
    12     8     9   ar
    13     8    13   ar
    14     9    10   ar
    15     9    36    1
    16    10    11   ar
    17    10    26    1
    18    11    12   ar
    19    11    14    1
    20    12    13   ar
    21    12    17    1
    22    13    37    1
    23    14    15    1
    24    14    25    2
    25    15    16    1
    26    15    38    1
    27    15    39    1
    28    16    17    1
    29    16    18    1
    30    16    40    1
    31    18    19   ar
    32    18    23   ar
    33    19    20   ar
    34    19    41    1
    35    20    21   ar
    36    20    42    1
    37    21    22   ar
    38    21    24    1
    39    22    23   ar
    40    22    43    1
    41    23    44    1
    42    24    45    1
    43    26    46    1
    44    27    47    1
    45    28    48    1
    46    29    49    1
    47    30    50    1
    48     1    31    1
    49     1    27    1
    50     2    32    1
    51     2    28    1
    52     4    34    1
    53     4    30    1
