@<TRIPOS>MOLECULE
*****
 50 53 0 0 0
SMALL
GASTEIGER

@<TRIPOS>ATOM
     1 C         -0.338751   -1.332615   1.697112 C.3        1 UNL1     0.1889
     2 C         -0.466017   -0.974442   0.191969 C.3        1 UNL1     0.1342
     3 C         -1.906089   -0.955313   -0.343093 C.3        1 UNL1     0.1174
     4 C         -2.796854   -2.013662   0.31231 C.3        1 UNL1     0.1456
     5 C         -2.647366   -2.044401   1.844325 C.3        1 UNL1     0.2326
     6 O         -1.283684   -2.268222   2.195245 O.3        1 UNL1     -0.3076
     7 O         -3.21927   -0.897495   2.499194 O.3        1 UNL1     -0.4605
     8 C         -3.731637   -1.115324   3.765511 C.ar        1 UNL1     0.1310
     9 C         -4.552242   -2.186694   4.134395 C.ar        1 UNL1     0.0226
     10 C         -5.00767   -2.329813   5.450451 C.ar        1 UNL1     0.1343
     11 C         -4.633671   -1.417163   6.435862 C.ar        1 UNL1     0.1007
     12 C         -3.84818   -0.320585   6.070755 C.ar        1 UNL1     0.1389
     13 C         -3.392551   -0.175458   4.746832 C.ar        1 UNL1     0.0229
     14 C         -5.016977   -1.566329   7.85888 C.2        1 UNL1     0.1740
     15 C         -4.346207   -0.623512   8.814241 C.3        1 UNL1     0.0520
     16 C         -4.271202   0.750357   8.162461 C.3        1 UNL1     0.1322
     17 O         -3.510977   0.694902   6.935248 O.3        1 UNL1     -0.4828
     18 C         -5.627867   1.447863   8.03729 C.ar        1 UNL1     -0.0067
     19 C         -6.001977   2.018465   6.803325 C.ar        1 UNL1     -0.0516
     20 C         -7.214674   2.704668   6.667483 C.ar        1 UNL1     -0.0198
     21 C         -8.056719   2.833233   7.757556 C.ar        1 UNL1     0.1169
     22 C         -7.731389   2.253479   8.976935 C.ar        1 UNL1     -0.0198
     23 C         -6.527274   1.551378   9.108152 C.ar        1 UNL1     -0.0516
     24 O         -9.211713   3.540851   7.597352 O.3        1 UNL1     -0.5068
     25 O         -5.769416   -2.446777   8.267698 O.2        1 UNL1     -0.2917
     26 O         -5.806103   -3.396351   5.744705 O.3        1 UNL1     -0.5058
     27 O         -0.230693   -0.197443   2.541206 O.3        1 UNL1     -0.3648
     28 O         0.262196   -1.952917   -0.572883 O.3        1 UNL1     -0.3841
     29 O         -2.45916   0.359946   -0.26347 O.3        1 UNL1     -0.3863
     30 O         -2.453037   -3.313962   -0.213714 O.3        1 UNL1     -0.3829
     31 H         0.620006   -1.849125   1.815779 H        1 UNL1     0.0937
     32 H         0.0   0.0   0.0 H        1 UNL1     0.0671
     33 H         -1.868467   -1.191564   -1.415702 H        1 UNL1     0.0649
     34 H         -3.846021   -1.830933   0.054903 H        1 UNL1     0.0683
     35 H         -3.205533   -2.939344   2.146661 H        1 UNL1     0.1085
     36 H         -4.832314   -2.960121   3.427649 H        1 UNL1     0.0691
     37 H         -2.783141   0.687732   4.487957 H        1 UNL1     0.0691
     38 H         -3.345522   -1.01778   9.020901 H        1 UNL1     0.0385
     39 H         -4.907703   -0.605601   9.754549 H        1 UNL1     0.0385
     40 H         -3.67504   1.391317   8.825998 H        1 UNL1     0.0789
     41 H         -5.354268   1.939234   5.935081 H        1 UNL1     0.0623
     42 H         -7.486421   3.1505   5.713859 H        1 UNL1     0.0654
     43 H         -8.390461   2.33519   9.833006 H        1 UNL1     0.0654
     44 H         -6.309998   1.102185   10.072446 H        1 UNL1     0.0623
     45 H         -8.981925   4.450504   7.347459 H        1 UNL1     0.2921
     46 H         -5.40576   -3.911857   6.462612 H        1 UNL1     0.2922
     47 H         0.511999   0.356781   2.263531 H        1 UNL1     0.2126
     48 H         1.197757   -1.879452   -0.302585 H        1 UNL1     0.2101
     49 H         -2.017587   0.942812   -0.901493 H        1 UNL1     0.2100
     50 H         -2.690305   -3.327098   -1.164106 H        1 UNL1     0.2102
@<TRIPOS>BOND
     1     1     2    1
     2     1     6    1
     3     2     3    1
     4     3     4    1
     5     3    29    1
     6     3    33    1
     7     4     5    1
     8     5     6    1
     9     5     7    1
    10     5    35    1
    11     7     8    1
    12     8     9   ar
    13     8    13   ar
    14     9    10   ar
    15     9    36    1
    16    10    11   ar
    17    10    26    1
    18    11    12   ar
    19    11    14    1
    20    12    13   ar
    21    12    17    1
    22    13    37    1
    23    14    15    1
    24    14    25    2
    25    15    16    1
    26    15    38    1
    27    15    39    1
    28    16    17    1
    29    16    18    1
    30    16    40    1
    31    18    19   ar
    32    18    23   ar
    33    19    20   ar
    34    19    41    1
    35    20    21   ar
    36    20    42    1
    37    21    22   ar
    38    21    24    1
    39    22    23   ar
    40    22    43    1
    41    23    44    1
    42    24    45    1
    43    26    46    1
    44    27    47    1
    45    28    48    1
    46    29    49    1
    47    30    50    1
    48     1    31    1
    49     1    27    1
    50     2    32    1
    51     2    28    1
    52     4    34    1
    53     4    30    1
