@<TRIPOS>MOLECULE
*****
 50 53 0 0 0
SMALL
GASTEIGER

@<TRIPOS>ATOM
     1 C         -0.332021   -1.327995   1.702056 C.3        1 UNL1     0.1889
     2 C         -0.462552   -0.975311   0.195897 C.3        1 UNL1     0.1342
     3 C         -1.903421   -0.9627   -0.33721 C.3        1 UNL1     0.1174
     4 C         -2.789798   -2.021748   0.322995 C.3        1 UNL1     0.1456
     5 C         -2.638083   -2.046838   1.854895 C.3        1 UNL1     0.2326
     6 O         -1.273188   -2.265009   2.204654 O.3        1 UNL1     -0.3076
     7 O         -3.212835   -0.899612   2.506703 O.3        1 UNL1     -0.4605
     8 C         -3.722299   -1.114748   3.77465 C.ar        1 UNL1     0.1310
     9 C         -4.538572   -2.187635   4.148697 C.ar        1 UNL1     0.0226
     10 C         -4.991273   -2.32769   5.466023 C.ar        1 UNL1     0.1343
     11 C         -4.61876   -1.410292   6.447581 C.ar        1 UNL1     0.1007
     12 C         -3.837681   -0.312305   6.077282 C.ar        1 UNL1     0.1389
     13 C         -3.3848   -0.170269   4.752082 C.ar        1 UNL1     0.0229
     14 C         -4.999137   -1.555768   7.871767 C.2        1 UNL1     0.1740
     15 C         -4.33001   -0.607287   8.822662 C.3        1 UNL1     0.0520
     16 C         -4.260855   0.764529   8.165931 C.3        1 UNL1     0.1322
     17 O         -3.502524   0.707376   6.937624 O.3        1 UNL1     -0.4828
     18 C         -5.620132   1.456908   8.040624 C.ar        1 UNL1     -0.0067
     19 C         -5.99948   2.019416   6.804544 C.ar        1 UNL1     -0.0516
     20 C         -7.214783   2.7009   6.668233 C.ar        1 UNL1     -0.0198
     21 C         -8.054258   2.832786   7.75989 C.ar        1 UNL1     0.1169
     22 C         -7.723698   2.260887   8.981569 C.ar        1 UNL1     -0.0198
     23 C         -6.516939   1.563451   9.113368 C.ar        1 UNL1     -0.0516
     24 O         -9.211994   3.535739   7.598939 O.3        1 UNL1     -0.5068
     25 O         -5.747836   -2.437362   8.28496 O.2        1 UNL1     -0.2917
     26 O         -5.785518   -3.395932   5.765386 O.3        1 UNL1     -0.5058
     27 O         -0.226514   -0.18964   2.542176 O.3        1 UNL1     -0.3648
     28 O         0.267803   -1.953966   -0.56668 O.3        1 UNL1     -0.3841
     29 O         -2.460691   0.351001   -0.261235 O.3        1 UNL1     -0.3863
     30 O         -2.44245   -3.322678   -0.199135 O.3        1 UNL1     -0.3829
     31 H         0.628589   -1.840961   1.821117 H        1 UNL1     0.0937
     32 H         0.0   0.0   0.0 H        1 UNL1     0.0671
     33 H         -1.866514   -1.202437   -1.40907 H        1 UNL1     0.0649
     34 H         -3.839916   -1.843323   0.066445 H        1 UNL1     0.0683
     35 H         -3.19289   -2.942581   2.161019 H        1 UNL1     0.1085
     36 H         -4.817169   -2.964507   3.445153 H        1 UNL1     0.0691
     37 H         -2.778815   0.6941   4.489135 H        1 UNL1     0.0691
     38 H         -3.32762   -0.997371   9.028998 H        1 UNL1     0.0385
     39 H         -4.889971   -0.588002   9.763858 H        1 UNL1     0.0385
     40 H         -3.665787   1.409874   8.826192 H        1 UNL1     0.0789
     41 H         -5.353894   1.937464   5.934973 H        1 UNL1     0.0623
     42 H         -7.490594   3.140534   5.712899 H        1 UNL1     0.0654
     43 H         -8.380689   2.345214   9.838985 H        1 UNL1     0.0654
     44 H         -6.295558   1.12034   10.07954 H        1 UNL1     0.0623
     45 H         -8.986026   4.443221   7.33792 H        1 UNL1     0.2921
     46 H         -5.381403   -3.908399   6.483357 H        1 UNL1     0.2922
     47 H         0.516513   0.363959   2.264148 H        1 UNL1     0.2126
     48 H         1.200751   -1.888205   -0.285581 H        1 UNL1     0.2101
     49 H         -2.0218   0.933203   -0.901712 H        1 UNL1     0.2100
     50 H         -2.675775   -3.337865   -1.150471 H        1 UNL1     0.2102
@<TRIPOS>BOND
     1     1     2    1
     2     1     6    1
     3     2     3    1
     4     3     4    1
     5     3    29    1
     6     3    33    1
     7     4     5    1
     8     5     6    1
     9     5     7    1
    10     5    35    1
    11     7     8    1
    12     8     9   ar
    13     8    13   ar
    14     9    10   ar
    15     9    36    1
    16    10    11   ar
    17    10    26    1
    18    11    12   ar
    19    11    14    1
    20    12    13   ar
    21    12    17    1
    22    13    37    1
    23    14    15    1
    24    14    25    2
    25    15    16    1
    26    15    38    1
    27    15    39    1
    28    16    17    1
    29    16    18    1
    30    16    40    1
    31    18    19   ar
    32    18    23   ar
    33    19    20   ar
    34    19    41    1
    35    20    21   ar
    36    20    42    1
    37    21    22   ar
    38    21    24    1
    39    22    23   ar
    40    22    43    1
    41    23    44    1
    42    24    45    1
    43    26    46    1
    44    27    47    1
    45    28    48    1
    46    29    49    1
    47    30    50    1
    48     1    31    1
    49     1    27    1
    50     2    32    1
    51     2    28    1
    52     4    34    1
    53     4    30    1
