@<TRIPOS>MOLECULE
*****
 50 53 0 0 0
SMALL
GASTEIGER

@<TRIPOS>ATOM
     1 C         -0.326089   -1.366196   1.672716 C.3        1 UNL1     0.1889
     2 C         -0.462454   -0.97923   0.175518 C.3        1 UNL1     0.1342
     3 C         -1.905456   -0.953587   -0.351314 C.3        1 UNL1     0.1174
     4 C         -2.789915   -2.02684   0.2882 C.3        1 UNL1     0.1456
     5 C         -2.632028   -2.086896   1.818503 C.3        1 UNL1     0.2326
     6 O         -1.265887   -2.313824   2.157666 O.3        1 UNL1     -0.3076
     7 O         -3.203321   -0.95445   2.498586 O.3        1 UNL1     -0.4605
     8 C         -3.718443   -1.200576   3.758585 C.ar        1 UNL1     0.1310
     9 C         -4.541477   -2.278804   4.101131 C.ar        1 UNL1     0.0226
     10 C         -4.999635   -2.451481   5.412686 C.ar        1 UNL1     0.1343
     11 C         -4.626035   -1.562422   6.41958 C.ar        1 UNL1     0.1007
     12 C         -3.83808   -0.45902   6.081326 C.ar        1 UNL1     0.1389
     13 C         -3.379703   -0.284155   4.761954 C.ar        1 UNL1     0.0229
     14 C         -5.012284   -1.74373   7.838063 C.2        1 UNL1     0.1740
     15 C         -4.341807   -0.824311   8.816163 C.3        1 UNL1     0.0520
     16 C         -4.263343   0.564097   8.196387 C.3        1 UNL1     0.1322
     17 O         -3.500879   0.535698   6.969638 O.3        1 UNL1     -0.4828
     18 C         -5.61864   1.266554   8.084811 C.ar        1 UNL1     -0.0067
     19 C         -5.692746   2.535676   7.47485 C.ar        1 UNL1     -0.0516
     20 C         -6.908182   3.226258   7.398862 C.ar        1 UNL1     -0.0198
     21 C         -8.052611   2.662974   7.934419 C.ar        1 UNL1     0.1169
     22 C         -8.017969   1.400215   8.511549 C.ar        1 UNL1     -0.0198
     23 C         -6.80627   0.701443   8.571204 C.ar        1 UNL1     -0.0516
     24 O         -9.210509   3.38145   7.875551 O.3        1 UNL1     -0.5068
     25 O         -5.766919   -2.632123   8.225062 O.2        1 UNL1     -0.2917
     26 O         -5.800349   -3.523195   5.680774 O.3        1 UNL1     -0.5058
     27 O         -0.216374   -0.24733   2.538098 O.3        1 UNL1     -0.3648
     28 O         0.264113   -1.940723   -0.612097 O.3        1 UNL1     -0.3841
     29 O         -2.461475   0.35839   -0.243193 O.3        1 UNL1     -0.3863
     30 O         -2.44561   -3.315761   -0.264815 O.3        1 UNL1     -0.3829
     31 H         0.634627   -1.882338   1.77617 H        1 UNL1     0.0937
     32 H         0.0   0.0   0.0 H        1 UNL1     0.0671
     33 H         -1.873053   -1.168881   -1.428495 H        1 UNL1     0.0649
     34 H         -3.840933   -1.841966   0.04004 H        1 UNL1     0.0683
     35 H         -3.186234   -2.989031   2.106405 H        1 UNL1     0.1085
     36 H         -4.821457   -3.035261   3.376213 H        1 UNL1     0.0691
     37 H         -2.768409   0.583763   4.524193 H        1 UNL1     0.0691
     38 H         -3.342154   -1.224901   9.015537 H        1 UNL1     0.0385
     39 H         -4.905058   -0.827159   9.755587 H        1 UNL1     0.0385
     40 H         -3.667408   1.188594   8.87564 H        1 UNL1     0.0789
     41 H         -4.806864   3.003309   7.05511 H        1 UNL1     0.0623
     42 H         -6.950096   4.209418   6.936638 H        1 UNL1     0.0654
     43 H         -8.911186   0.943309   8.920584 H        1 UNL1     0.0654
     44 H         -6.81793   -0.287312   9.019617 H        1 UNL1     0.0623
     45 H         -9.091412   4.197589   8.38785 H        1 UNL1     0.2921
     46 H         -5.413432   -4.043605   6.402495 H        1 UNL1     0.2922
     47 H         0.513011   0.322809   2.257385 H        1 UNL1     0.2126
     48 H         1.204481   -1.852241   -0.36388 H        1 UNL1     0.2101
     49 H         -2.030873   0.952666   -0.878183 H        1 UNL1     0.2100
     50 H         -2.688003   -3.311092   -1.213992 H        1 UNL1     0.2102
@<TRIPOS>BOND
     1     1     2    1
     2     1     6    1
     3     2     3    1
     4     3     4    1
     5     3    29    1
     6     3    33    1
     7     4     5    1
     8     5     6    1
     9     5     7    1
    10     5    35    1
    11     7     8    1
    12     8     9   ar
    13     8    13   ar
    14     9    10   ar
    15     9    36    1
    16    10    11   ar
    17    10    26    1
    18    11    12   ar
    19    11    14    1
    20    12    13   ar
    21    12    17    1
    22    13    37    1
    23    14    15    1
    24    14    25    2
    25    15    16    1
    26    15    38    1
    27    15    39    1
    28    16    17    1
    29    16    18    1
    30    16    40    1
    31    18    19   ar
    32    18    23   ar
    33    19    20   ar
    34    19    41    1
    35    20    21   ar
    36    20    42    1
    37    21    22   ar
    38    21    24    1
    39    22    23   ar
    40    22    43    1
    41    23    44    1
    42    24    45    1
    43    26    46    1
    44    27    47    1
    45    28    48    1
    46    29    49    1
    47    30    50    1
    48     1    31    1
    49     1    27    1
    50     2    32    1
    51     2    28    1
    52     4    34    1
    53     4    30    1
