@<TRIPOS>MOLECULE
*****
 50 53 0 0 0
SMALL
GASTEIGER

@<TRIPOS>ATOM
     1 C         -0.332715   -1.328611   1.70144 C.3        1 UNL1     0.1889
     2 C         -0.46284   -0.975274   0.195398 C.3        1 UNL1     0.1342
     3 C         -1.903594   -0.962079   -0.338006 C.3        1 UNL1     0.1174
     4 C         -2.790378   -2.021174   0.321577 C.3        1 UNL1     0.1456
     5 C         -2.638991   -2.046932   1.853498 C.3        1 UNL1     0.2326
     6 O         -1.274225   -2.265593   2.203455 O.3        1 UNL1     -0.3076
     7 O         -3.213589   -0.899829   2.505657 O.3        1 UNL1     -0.4605
     8 C         -3.7238   -1.115463   3.77322 C.ar        1 UNL1     0.1310
     9 C         -4.540724   -2.188212   4.14624 C.ar        1 UNL1     0.0226
     10 C         -4.994164   -2.328817   5.463253 C.ar        1 UNL1     0.1343
     11 C         -4.621766   -1.412133   6.445521 C.ar        1 UNL1     0.1007
     12 C         -3.840027   -0.31427   6.076245 C.ar        1 UNL1     0.1389
     13 C         -3.386402   -0.17168   4.751359 C.ar        1 UNL1     0.0229
     14 C         -5.002939   -1.558251   7.869428 C.2        1 UNL1     0.1740
     15 C         -4.333898   -0.610592   8.821203 C.3        1 UNL1     0.0520
     16 C         -4.263819   0.761565   8.165283 C.3        1 UNL1     0.1322
     17 O         -3.504878   0.704781   6.937335 O.3        1 UNL1     -0.4828
     18 C         -5.622735   1.454595   8.039666 C.ar        1 UNL1     -0.0067
     19 C         -6.000418   2.019598   6.804214 C.ar        1 UNL1     -0.0516
     20 C         -7.21535   2.701711   6.667746 C.ar        1 UNL1     -0.0198
     21 C         -8.056107   2.831748   7.758639 C.ar        1 UNL1     0.1169
     22 C         -7.727197   2.257397   8.979613 C.ar        1 UNL1     -0.0198
     23 C         -6.520808   1.559342   9.111528 C.ar        1 UNL1     -0.0516
     24 O         -9.213436   3.53536   7.597643 O.3        1 UNL1     -0.5068
     25 O         -5.752228   -2.439757   8.281737 O.2        1 UNL1     -0.2917
     26 O         -5.789019   -3.396889   5.761603 O.3        1 UNL1     -0.5058
     27 O         -0.227096   -0.190628   2.54205 O.3        1 UNL1     -0.3648
     28 O         0.267427   -1.9538   -0.567428 O.3        1 UNL1     -0.3841
     29 O         -2.460547   0.351732   -0.261608 O.3        1 UNL1     -0.3863
     30 O         -2.44325   -3.321977   -0.201015 O.3        1 UNL1     -0.3829
     31 H         0.627739   -1.841869   1.820491 H        1 UNL1     0.0937
     32 H         0.0   0.0   0.0 H        1 UNL1     0.0671
     33 H         -1.866523   -1.201384   -1.409957 H        1 UNL1     0.0649
     34 H         -3.840397   -1.842377   0.06488 H        1 UNL1     0.0683
     35 H         -3.19409   -2.94266   2.159137 H        1 UNL1     0.1085
     36 H         -4.819289   -2.964568   3.442114 H        1 UNL1     0.0691
     37 H         -2.779912   0.692578   4.489213 H        1 UNL1     0.0691
     38 H         -3.331782   -1.001221   9.027836 H        1 UNL1     0.0385
     39 H         -4.894336   -0.591599   9.762122 H        1 UNL1     0.0385
     40 H         -3.668817   1.406282   8.826216 H        1 UNL1     0.0789
     41 H         -5.353805   1.939126   5.935268 H        1 UNL1     0.0623
     42 H         -7.489873   3.143268   5.712929 H        1 UNL1     0.0654
     43 H         -8.3852   2.34027   9.836394 H        1 UNL1     0.0654
     44 H         -6.30073   1.114304   10.077111 H        1 UNL1     0.0623
     45 H         -8.98688   4.443275   7.338646 H        1 UNL1     0.2921
     46 H         -5.38558   -3.909836   6.47961 H        1 UNL1     0.2922
     47 H         -0.083607   0.60543   2.011427 H        1 UNL1     0.2126
     48 H         1.200332   -1.888391   -0.286106 H        1 UNL1     0.2101
     49 H         -2.021374   0.934086   -0.901752 H        1 UNL1     0.2100
     50 H         -2.676379   -3.336713   -1.152407 H        1 UNL1     0.2102
@<TRIPOS>BOND
     1     1     2    1
     2     1     6    1
     3     2     3    1
     4     3     4    1
     5     3    29    1
     6     3    33    1
     7     4     5    1
     8     5     6    1
     9     5     7    1
    10     5    35    1
    11     7     8    1
    12     8     9   ar
    13     8    13   ar
    14     9    10   ar
    15     9    36    1
    16    10    11   ar
    17    10    26    1
    18    11    12   ar
    19    11    14    1
    20    12    13   ar
    21    12    17    1
    22    13    37    1
    23    14    15    1
    24    14    25    2
    25    15    16    1
    26    15    38    1
    27    15    39    1
    28    16    17    1
    29    16    18    1
    30    16    40    1
    31    18    19   ar
    32    18    23   ar
    33    19    20   ar
    34    19    41    1
    35    20    21   ar
    36    20    42    1
    37    21    22   ar
    38    21    24    1
    39    22    23   ar
    40    22    43    1
    41    23    44    1
    42    24    45    1
    43    26    46    1
    44    27    47    1
    45    28    48    1
    46    29    49    1
    47    30    50    1
    48     1    31    1
    49     1    27    1
    50     2    32    1
    51     2    28    1
    52     4    34    1
    53     4    30    1
