@<TRIPOS>MOLECULE
*****
 50 53 0 0 0
SMALL
GASTEIGER

@<TRIPOS>ATOM
     1 C         0.011961   -1.145924   1.859441 C.3        1 UNL1     0.1889
     2 C         -0.261594   -1.01061   0.337338 C.3        1 UNL1     0.1342
     3 C         -1.705727   -1.321673   -0.084783 C.3        1 UNL1     0.1174
     4 C         -2.342917   -2.432598   0.75364 C.3        1 UNL1     0.1456
     5 C         -2.108286   -2.241176   2.263167 C.3        1 UNL1     0.2326
     6 O         -0.710075   -2.166947   2.532174 O.3        1 UNL1     -0.3076
     7 O         -2.851493   -1.143793   2.824162 O.3        1 UNL1     -0.4605
     8 C         -3.254232   -1.293682   4.139025 C.ar        1 UNL1     0.1310
     9 C         -3.843499   -2.441361   4.680226 C.ar        1 UNL1     0.0226
     10 C         -4.201866   -2.502072   6.032184 C.ar        1 UNL1     0.1343
     11 C         -3.957609   -1.424099   6.88198 C.ar        1 UNL1     0.1007
     12 C         -3.407305   -0.257622   6.344131 C.ar        1 UNL1     0.1389
     13 C         -3.049484   -0.195874   4.984137 C.ar        1 UNL1     0.0229
     14 C         -4.23902   -1.46479   8.335701 C.2        1 UNL1     0.1740
     15 C         -3.710494   -0.307999   9.13197 C.3        1 UNL1     0.0520
     16 C         -3.922504   0.967314   8.327864 C.3        1 UNL1     0.1322
     17 O         -3.223946   0.899441   7.065137 O.3        1 UNL1     -0.4828
     18 C         -5.389388   1.390641   8.219371 C.ar        1 UNL1     -0.0067
     19 C         -5.916677   1.744856   6.960518 C.ar        1 UNL1     -0.0516
     20 C         -7.240609   2.181918   6.833461 C.ar        1 UNL1     -0.0198
     21 C         -8.043408   2.275926   7.956182 C.ar        1 UNL1     0.1169
     22 C         -7.562934   1.902364   9.204555 C.ar        1 UNL1     -0.0198
     23 C         -6.244672   1.447705   9.329158 C.ar        1 UNL1     -0.0516
     24 O         -9.315748   2.741639   7.799138 O.3        1 UNL1     -0.5068
     25 O         -4.794917   -2.40902   8.890583 O.2        1 UNL1     -0.2917
     26 O         -4.773789   -3.650167   6.497335 O.3        1 UNL1     -0.5058
     27 O         -0.052259   0.08766   2.557248 O.3        1 UNL1     -0.3648
     28 O         0.596976   -1.929268   -0.363827 O.3        1 UNL1     -0.3841
     29 O         -2.493308   -0.129625   -0.114272 O.3        1 UNL1     -0.3863
     30 O         -1.787283   -3.704702   0.355256 O.3        1 UNL1     -0.3829
     31 H         1.05629   -1.460183   1.962866 H        1 UNL1     0.0937
     32 H         0.0   0.0   0.0 H        1 UNL1     0.0671
     33 H         -1.681584   -1.681177   -1.123 H        1 UNL1     0.0649
     34 H         -3.419973   -2.477844   0.557928 H        1 UNL1     0.0683
     35 H         -2.469383   -3.177031   2.707758 H        1 UNL1     0.1085
     36 H         -4.008248   -3.332661   4.084775 H        1 UNL1     0.0691
     37 H         -2.623695   0.724223   4.589652 H        1 UNL1     0.0691
     38 H         -2.64542   -0.488942   9.31198 H        1 UNL1     0.0385
     39 H         -4.220569   -0.276239   10.100781 H        1 UNL1     0.0385
     40 H         -3.424974   1.780496   8.8735 H        1 UNL1     0.0789
     41 H         -5.304114   1.688481   6.065398 H        1 UNL1     0.0623
     42 H         -7.631959   2.463545   5.859017 H        1 UNL1     0.0654
     43 H         -8.187644   1.957771   10.088058 H        1 UNL1     0.0654
     44 H         -5.905697   1.154148   10.317979 H        1 UNL1     0.0623
     45 H         -9.269981   3.653582   7.469012 H        1 UNL1     0.2921
     46 H         -4.251343   -3.994439   7.238914 H        1 UNL1     0.2922
     47 H         0.543508   0.733074   2.151831 H        1 UNL1     0.2126
     48 H         1.514032   -1.63797   -0.196838 H        1 UNL1     0.2101
     49 H         -2.210834   0.43438   -0.851769 H        1 UNL1     0.2100
     50 H         -2.068417   -3.88114   -0.566452 H        1 UNL1     0.2102
@<TRIPOS>BOND
     1     1     2    1
     2     1     6    1
     3     2     3    1
     4     3     4    1
     5     3    29    1
     6     3    33    1
     7     4     5    1
     8     5     6    1
     9     5     7    1
    10     5    35    1
    11     7     8    1
    12     8     9   ar
    13     8    13   ar
    14     9    10   ar
    15     9    36    1
    16    10    11   ar
    17    10    26    1
    18    11    12   ar
    19    11    14    1
    20    12    13   ar
    21    12    17    1
    22    13    37    1
    23    14    15    1
    24    14    25    2
    25    15    16    1
    26    15    38    1
    27    15    39    1
    28    16    17    1
    29    16    18    1
    30    16    40    1
    31    18    19   ar
    32    18    23   ar
    33    19    20   ar
    34    19    41    1
    35    20    21   ar
    36    20    42    1
    37    21    22   ar
    38    21    24    1
    39    22    23   ar
    40    22    43    1
    41    23    44    1
    42    24    45    1
    43    26    46    1
    44    27    47    1
    45    28    48    1
    46    29    49    1
    47    30    50    1
    48     1    31    1
    49     1    27    1
    50     2    32    1
    51     2    28    1
    52     4    34    1
    53     4    30    1
