@<TRIPOS>MOLECULE
*****
 50 53 0 0 0
SMALL
GASTEIGER

@<TRIPOS>ATOM
     1 C         0.988669   1.945067   -0.100262 C.3        1 UNL1     0.1889
     2 C         0.834157   0.517523   0.48981 C.3        1 UNL1     0.1342
     3 C         0.628139   0.471528   2.01162 C.3        1 UNL1     0.1174
     4 C         1.39898   1.569779   2.748348 C.3        1 UNL1     0.1456
     5 C         1.235324   2.950637   2.087432 C.3        1 UNL1     0.2326
     6 O         1.652899   2.890215   0.725504 O.3        1 UNL1     -0.3076
     7 O         -0.079405   3.512594   2.251787 O.3        1 UNL1     -0.4605
     8 C         -1.013964   3.158404   1.295399 C.ar        1 UNL1     0.1310
     9 C         -1.119238   3.71983   0.018285 C.ar        1 UNL1     0.0226
     10 C         -2.091756   3.280119   -0.887676 C.ar        1 UNL1     0.1343
     11 C         -2.968131   2.250804   -0.546622 C.ar        1 UNL1     0.1007
     12 C         -2.899428   1.710562   0.740313 C.ar        1 UNL1     0.1389
     13 C         -1.923198   2.154685   1.651993 C.ar        1 UNL1     0.0229
     14 C         -3.959408   1.690155   -1.493827 C.2        1 UNL1     0.1740
     15 C         -4.662161   0.445549   -1.037052 C.3        1 UNL1     0.0520
     16 C         -4.987696   0.5917   0.443024 C.3        1 UNL1     0.1322
     17 O         -3.781652   0.769517   1.218206 O.3        1 UNL1     -0.4828
     18 C         -6.085843   1.617426   0.734031 C.ar        1 UNL1     -0.0067
     19 C         -6.556577   2.442504   -0.308019 C.ar        1 UNL1     -0.0516
     20 C         -7.52609   3.422964   -0.065723 C.ar        1 UNL1     -0.0198
     21 C         -8.026297   3.59282   1.212858 C.ar        1 UNL1     0.1169
     22 C         -7.606938   2.773403   2.252825 C.ar        1 UNL1     -0.0198
     23 C         -6.650938   1.780584   2.006996 C.ar        1 UNL1     -0.0516
     24 O         -8.94157   4.582973   1.418468 O.3        1 UNL1     -0.5068
     25 O         -4.154452   2.146661   -2.617235 O.2        1 UNL1     -0.2917
     26 O         -2.142189   3.869779   -2.117043 O.3        1 UNL1     -0.5058
     27 O         -0.217008   2.470415   -0.63237 O.3        1 UNL1     -0.3648
     28 O         2.029703   -0.229078   0.196614 O.3        1 UNL1     -0.3841
     29 O         -0.763838   0.460398   2.334744 O.3        1 UNL1     -0.3863
     30 O         2.802361   1.229652   2.771306 O.3        1 UNL1     -0.3829
     31 H         1.649936   1.854607   -0.968952 H        1 UNL1     0.0937
     32 H         0.0   0.0   0.0 H        1 UNL1     0.0671
     33 H         1.019502   -0.489279   2.374116 H        1 UNL1     0.0649
     34 H         1.065661   1.625862   3.790535 H        1 UNL1     0.0683
     35 H         1.959328   3.583988   2.615225 H        1 UNL1     0.1085
     36 H         -0.431906   4.484371   -0.326927 H        1 UNL1     0.0691
     37 H         -1.891347   1.718698   2.648183 H        1 UNL1     0.0691
     38 H         -3.986951   -0.398971   -1.211421 H        1 UNL1     0.0385
     39 H         -5.560479   0.296612   -1.645838 H        1 UNL1     0.0385
     40 H         -5.392482   -0.371477   0.78208 H        1 UNL1     0.0789
     41 H         -6.173099   2.33513   -1.318497 H        1 UNL1     0.0623
     42 H         -7.872321   4.060896   -0.875153 H        1 UNL1     0.0654
     43 H         -8.003097   2.887827   3.254761 H        1 UNL1     0.0654
     44 H         -6.354001   1.151478   2.840602 H        1 UNL1     0.0623
     45 H         -8.92642   4.82418   2.358843 H        1 UNL1     0.2921
     46 H         -2.158275   3.184764   -2.803998 H        1 UNL1     0.2922
     47 H         -0.213577   3.436344   -0.579181 H        1 UNL1     0.2126
     48 H         2.669761   -0.021418   0.904381 H        1 UNL1     0.2101
     49 H         -0.880068   0.327   3.28894 H        1 UNL1     0.2100
     50 H         2.91435   0.450918   3.355039 H        1 UNL1     0.2102
@<TRIPOS>BOND
     1     1     2    1
     2     1     6    1
     3     2     3    1
     4     3     4    1
     5     3    29    1
     6     3    33    1
     7     4     5    1
     8     5     6    1
     9     5     7    1
    10     5    35    1
    11     7     8    1
    12     8     9   ar
    13     8    13   ar
    14     9    10   ar
    15     9    36    1
    16    10    11   ar
    17    10    26    1
    18    11    12   ar
    19    11    14    1
    20    12    13   ar
    21    12    17    1
    22    13    37    1
    23    14    15    1
    24    14    25    2
    25    15    16    1
    26    15    38    1
    27    15    39    1
    28    16    17    1
    29    16    18    1
    30    16    40    1
    31    18    19   ar
    32    18    23   ar
    33    19    20   ar
    34    19    41    1
    35    20    21   ar
    36    20    42    1
    37    21    22   ar
    38    21    24    1
    39    22    23   ar
    40    22    43    1
    41    23    44    1
    42    24    45    1
    43    26    46    1
    44    27    47    1
    45    28    48    1
    46    29    49    1
    47    30    50    1
    48     1    31    1
    49     1    27    1
    50     2    32    1
    51     2    28    1
    52     4    34    1
    53     4    30    1
