@<TRIPOS>MOLECULE
*****
 50 53 0 0 0
SMALL
GASTEIGER

@<TRIPOS>ATOM
     1 C         -0.318207   -1.321419   1.709796 C.3        1 UNL1     0.1889
     2 C         -0.455184   -0.977492   0.202184 C.3        1 UNL1     0.1342
     3 C         -1.897508   -0.977736   -0.327122 C.3        1 UNL1     0.1174
     4 C         -2.774692   -2.039513   0.34093 C.3        1 UNL1     0.1456
     5 C         -2.618761   -2.055576   1.872527 C.3        1 UNL1     0.2326
     6 O         -1.251451   -2.26237   2.219758 O.3        1 UNL1     -0.3076
     7 O         -3.199819   -0.909027   2.519919 O.3        1 UNL1     -0.4605
     8 C         -3.704414   -1.121127   3.790323 C.ar        1 UNL1     0.1310
     9 C         -4.512154   -2.197741   4.172106 C.ar        1 UNL1     0.0226
     10 C         -4.960382   -2.334109   5.491348 C.ar        1 UNL1     0.1343
     11 C         -4.591721   -1.409036   6.46714 C.ar        1 UNL1     0.1007
     12 C         -3.819339   -0.30755   6.089068 C.ar        1 UNL1     0.1389
     13 C         -3.370965   -0.169241   4.761943 C.ar        1 UNL1     0.0229
     14 C         -4.967307   -1.549764   7.893072 C.2        1 UNL1     0.1740
     15 C         -4.302339   -0.591692   8.837247 C.3        1 UNL1     0.0520
     16 C         -4.244538   0.777141   8.173235 C.3        1 UNL1     0.1322
     17 O         -3.48907   0.71891   6.943216 O.3        1 UNL1     -0.4828
     18 C         -5.608962   1.45933   8.047981 C.ar        1 UNL1     -0.0067
     19 C         -5.995506   2.012735   6.810023 C.ar        1 UNL1     -0.0516
     20 C         -7.215913   2.684982   6.673437 C.ar        1 UNL1     -0.0198
     21 C         -8.053408   2.816664   7.766638 C.ar        1 UNL1     0.1169
     22 C         -7.715622   2.253452   8.990375 C.ar        1 UNL1     -0.0198
     23 C         -6.503659   1.565171   9.122555 C.ar        1 UNL1     -0.0516
     24 O         -9.216465   3.510652   7.605148 O.3        1 UNL1     -0.5068
     25 O         -5.708713   -2.434414   8.312829 O.2        1 UNL1     -0.2917
     26 O         -5.746325   -3.406312   5.798365 O.3        1 UNL1     -0.5058
     27 O         -0.218467   -0.178   2.543722 O.3        1 UNL1     -0.3648
     28 O         0.279999   -1.954964   -0.557264 O.3        1 UNL1     -0.3841
     29 O         -2.463772   0.332411   -0.256463 O.3        1 UNL1     -0.3863
     30 O         -2.419611   -3.340678   -0.175381 O.3        1 UNL1     -0.3829
     31 H         0.646286   -1.827024   1.828941 H        1 UNL1     0.0937
     32 H         0.0   0.0   0.0 H        1 UNL1     0.0671
     33 H         -1.861751   -1.222778   -1.397821 H        1 UNL1     0.0649
     34 H         -3.826709   -1.869778   0.08627 H        1 UNL1     0.0683
     35 H         -3.166464   -2.953576   2.184772 H        1 UNL1     0.1085
     36 H         -4.787153   -2.980191   3.473345 H        1 UNL1     0.0691
     37 H         -2.771752   0.697969   4.4929 H        1 UNL1     0.0691
     38 H         -3.296697   -0.973675   9.042918 H        1 UNL1     0.0385
     39 H         -4.859934   -0.571433   9.779826 H        1 UNL1     0.0385
     40 H         -3.652268   1.430058   8.828549 H        1 UNL1     0.0789
     41 H         -5.35166   1.930783   5.939164 H        1 UNL1     0.0623
     42 H         -7.497321   3.117701   5.71658 H        1 UNL1     0.0654
     43 H         -8.370922   2.337636   9.849098 H        1 UNL1     0.0654
     44 H         -6.276626   1.128649   10.090414 H        1 UNL1     0.0623
     45 H         -8.997554   4.418324   7.338827 H        1 UNL1     0.2921
     46 H         -5.33682   -3.912101   6.518014 H        1 UNL1     0.2922
     47 H         0.519924   0.379331   2.260842 H        1 UNL1     0.2126
     48 H         1.213202   -1.881215   -0.279008 H        1 UNL1     0.2101
     49 H         -2.030667   0.914331   -0.90112 H        1 UNL1     0.2100
     50 H         -2.655334   -3.362444   -1.125998 H        1 UNL1     0.2102
@<TRIPOS>BOND
     1     1     2    1
     2     1     6    1
     3     2     3    1
     4     3     4    1
     5     3    29    1
     6     3    33    1
     7     4     5    1
     8     5     6    1
     9     5     7    1
    10     5    35    1
    11     7     8    1
    12     8     9   ar
    13     8    13   ar
    14     9    10   ar
    15     9    36    1
    16    10    11   ar
    17    10    26    1
    18    11    12   ar
    19    11    14    1
    20    12    13   ar
    21    12    17    1
    22    13    37    1
    23    14    15    1
    24    14    25    2
    25    15    16    1
    26    15    38    1
    27    15    39    1
    28    16    17    1
    29    16    18    1
    30    16    40    1
    31    18    19   ar
    32    18    23   ar
    33    19    20   ar
    34    19    41    1
    35    20    21   ar
    36    20    42    1
    37    21    22   ar
    38    21    24    1
    39    22    23   ar
    40    22    43    1
    41    23    44    1
    42    24    45    1
    43    26    46    1
    44    27    47    1
    45    28    48    1
    46    29    49    1
    47    30    50    1
    48     1    31    1
    49     1    27    1
    50     2    32    1
    51     2    28    1
    52     4    34    1
    53     4    30    1
