@<TRIPOS>MOLECULE
*****
 50 53 0 0 0
SMALL
GASTEIGER

@<TRIPOS>ATOM
     1 C         -0.325636   -1.360412   1.677512 C.3        1 UNL1     0.1889
     2 C         -0.465017   -0.977273   0.179607 C.3        1 UNL1     0.1342
     3 C         -1.909414   -0.9486   -0.343231 C.3        1 UNL1     0.1174
     4 C         -2.795417   -2.017253   0.301825 C.3        1 UNL1     0.1456
     5 C         -2.633397   -2.073459   1.831843 C.3        1 UNL1     0.2326
     6 O         -1.26702   -2.303706   2.167803 O.3        1 UNL1     -0.3076
     7 O         -3.199222   -0.9373   2.510302 O.3        1 UNL1     -0.4605
     8 C         -3.163394   0.260794   1.819785 C.ar        1 UNL1     0.1310
     9 C         -2.054906   0.767285   1.132747 C.ar        1 UNL1     0.0226
     10 C         -2.123235   1.985982   0.447173 C.ar        1 UNL1     0.1343
     11 C         -3.309976   2.716911   0.412107 C.ar        1 UNL1     0.1007
     12 C         -4.411595   2.241583   1.128544 C.ar        1 UNL1     0.1389
     13 C         -4.341852   1.017469   1.820002 C.ar        1 UNL1     0.0229
     14 C         -3.462421   3.968157   -0.365901 C.2        1 UNL1     0.1740
     15 C         -4.861478   4.49993   -0.472699 C.3        1 UNL1     0.0520
     16 C         -5.546941   4.326804   0.875679 C.3        1 UNL1     0.1322
     17 O         -5.594626   2.932672   1.251433 O.3        1 UNL1     -0.4828
     18 C         -5.009773   5.259168   1.964197 C.ar        1 UNL1     -0.0067
     19 C         -4.684558   4.730545   3.230296 C.ar        1 UNL1     -0.0516
     20 C         -4.235863   5.563008   4.262594 C.ar        1 UNL1     -0.0198
     21 C         -4.115427   6.923743   4.044139 C.ar        1 UNL1     0.1169
     22 C         -4.396098   7.469291   2.798169 C.ar        1 UNL1     -0.0198
     23 C         -4.827171   6.634469   1.760237 C.ar        1 UNL1     -0.0516
     24 O         -3.711675   7.708247   5.084302 O.3        1 UNL1     -0.5068
     25 O         -2.535679   4.511047   -0.961639 O.2        1 UNL1     -0.2917
     26 O         -1.006285   2.42479   -0.202023 O.3        1 UNL1     -0.5058
     27 O         -0.209978   -0.239442   2.539392 O.3        1 UNL1     -0.3648
     28 O         0.256311   -1.943272   -0.607308 O.3        1 UNL1     -0.3841
     29 O         -2.461019   0.365417   -0.237282 O.3        1 UNL1     -0.3863
     30 O         -2.456709   -3.308813   -0.248483 O.3        1 UNL1     -0.3829
     31 H         0.633749   -1.879268   1.779731 H        1 UNL1     0.0937
     32 H         0.0   0.0   0.0 H        1 UNL1     0.0671
     33 H         -1.880727   -1.167052   -1.419881 H        1 UNL1     0.0649
     34 H         -3.846548   -1.82979   0.0561 H        1 UNL1     0.0683
     35 H         -3.189608   -2.97303   2.123872 H        1 UNL1     0.1085
     36 H         -1.120564   0.219709   1.075422 H        1 UNL1     0.0691
     37 H         -5.213115   0.669921   2.371004 H        1 UNL1     0.0691
     38 H         -5.374602   3.927735   -1.252971 H        1 UNL1     0.0385
     39 H         -4.823858   5.54871   -0.786426 H        1 UNL1     0.0385
     40 H         -6.599463   4.611452   0.742665 H        1 UNL1     0.0789
     41 H         -4.77933   3.667112   3.429747 H        1 UNL1     0.0623
     42 H         -3.999607   5.145043   5.238043 H        1 UNL1     0.0654
     43 H         -4.290823   8.531411   2.611811 H        1 UNL1     0.0654
     44 H         -5.027413   7.093096   0.796697 H        1 UNL1     0.0623
     45 H         -4.373518   7.644029   5.791803 H        1 UNL1     0.2921
     46 H         -1.213386   2.572656   -1.138322 H        1 UNL1     0.2922
     47 H         0.520391   0.327607   2.255003 H        1 UNL1     0.2126
     48 H         1.197648   -1.857036   -0.361993 H        1 UNL1     0.2101
     49 H         -2.030113   0.956616   -0.874932 H        1 UNL1     0.2100
     50 H         -2.701766   -3.306079   -1.196984 H        1 UNL1     0.2102
@<TRIPOS>BOND
     1     1     2    1
     2     1     6    1
     3     2     3    1
     4     3     4    1
     5     3    29    1
     6     3    33    1
     7     4     5    1
     8     5     6    1
     9     5     7    1
    10     5    35    1
    11     7     8    1
    12     8     9   ar
    13     8    13   ar
    14     9    10   ar
    15     9    36    1
    16    10    11   ar
    17    10    26    1
    18    11    12   ar
    19    11    14    1
    20    12    13   ar
    21    12    17    1
    22    13    37    1
    23    14    15    1
    24    14    25    2
    25    15    16    1
    26    15    38    1
    27    15    39    1
    28    16    17    1
    29    16    18    1
    30    16    40    1
    31    18    19   ar
    32    18    23   ar
    33    19    20   ar
    34    19    41    1
    35    20    21   ar
    36    20    42    1
    37    21    22   ar
    38    21    24    1
    39    22    23   ar
    40    22    43    1
    41    23    44    1
    42    24    45    1
    43    26    46    1
    44    27    47    1
    45    28    48    1
    46    29    49    1
    47    30    50    1
    48     1    31    1
    49     1    27    1
    50     2    32    1
    51     2    28    1
    52     4    34    1
    53     4    30    1
