@<TRIPOS>MOLECULE
*****
 50 53 0 0 0
SMALL
GASTEIGER

@<TRIPOS>ATOM
     1 C         -0.250476   -1.393428   1.663257 C.3        1 UNL1     0.1889
     2 C         -0.44323   -0.987772   0.177246 C.3        1 UNL1     0.1342
     3 C         -1.903677   -0.974558   -0.299602 C.3        1 UNL1     0.1174
     4 C         -2.751464   -2.068482   0.35439 C.3        1 UNL1     0.1456
     5 C         -2.540368   -2.147452   1.877402 C.3        1 UNL1     0.2326
     6 O         -1.160523   -2.360375   2.166469 O.3        1 UNL1     -0.3076
     7 O         -3.102835   -1.032379   2.592639 O.3        1 UNL1     -0.4605
     8 C         -3.560367   -1.300267   3.870304 C.ar        1 UNL1     0.1310
     9 C         -4.349006   -2.396664   4.235354 C.ar        1 UNL1     0.0226
     10 C         -4.748786   -2.590587   5.562935 C.ar        1 UNL1     0.1343
     11 C         -4.349335   -1.704815   6.562779 C.ar        1 UNL1     0.1007
     12 C         -3.596009   -0.583932   6.203743 C.ar        1 UNL1     0.1389
     13 C         -3.196375   -0.387741   4.868366 C.ar        1 UNL1     0.0229
     14 C         -4.672657   -1.907107   7.994105 C.2        1 UNL1     0.1740
     15 C         -3.978382   -0.985278   8.953147 C.3        1 UNL1     0.0520
     16 C         -3.950664   0.410369   8.345398 C.3        1 UNL1     0.1322
     17 O         -3.239761   0.407979   7.087749 O.3        1 UNL1     -0.4828
     18 C         -5.32175   1.089029   8.297776 C.ar        1 UNL1     -0.0067
     19 C         -5.755125   1.691246   7.098721 C.ar        1 UNL1     -0.0516
     20 C         -6.982652   2.361304   7.034209 C.ar        1 UNL1     -0.0198
     21 C         -7.780786   2.442294   8.161263 C.ar        1 UNL1     0.1169
     22 C         -7.396606   1.830581   9.347454 C.ar        1 UNL1     -0.0198
     23 C         -6.177604   1.144635   9.407198 C.ar        1 UNL1     -0.0516
     24 O         -8.951996   3.135456   8.07074 O.3        1 UNL1     -0.5068
     25 O         -5.394495   -2.812898   8.402733 O.2        1 UNL1     -0.2917
     26 O         -5.518356   -3.67933   5.852737 O.3        1 UNL1     -0.5058
     27 O         -0.125857   -0.285195   2.540228 O.3        1 UNL1     -0.3648
     28 O         0.268466   -1.928325   -0.648317 O.3        1 UNL1     -0.3841
     29 O         -2.472875   0.328099   -0.153901 O.3        1 UNL1     -0.3863
     30 O         -2.409411   -3.344848   -0.228345 O.3        1 UNL1     -0.3829
     31 H         0.719934   -1.897793   1.7265 H        1 UNL1     0.0937
     32 H         0.0   0.0   0.0 H        1 UNL1     0.0671
     33 H         -1.905435   -1.174532   -1.380217 H        1 UNL1     0.0649
     34 H         -3.812723   -1.894561   0.144909 H        1 UNL1     0.0683
     35 H         -3.072446   -3.060942   2.171185 H        1 UNL1     0.1085
     36 H         -4.64551   -3.15093   3.514737 H        1 UNL1     0.0691
     37 H         -2.611128   0.493493   4.614586 H        1 UNL1     0.0691
     38 H         -2.964285   -1.369493   9.106488 H        1 UNL1     0.0385
     39 H         -4.501731   -1.007662   9.915116 H        1 UNL1     0.0385
     40 H         -3.338086   1.038922   9.005845 H        1 UNL1     0.0789
     41 H         -5.142721   1.649517   6.202691 H        1 UNL1     0.0623
     42 H         -7.300291   2.831852   6.107008 H        1 UNL1     0.0654
     43 H         -8.020903   1.874977   10.23187 H        1 UNL1     0.0654
     44 H         -5.913891   0.669506   10.347173 H        1 UNL1     0.0623
     45 H         -8.746883   4.054732   7.834995 H        1 UNL1     0.2921
     46 H         -5.080844   -4.212319   6.535318 H        1 UNL1     0.2922
     47 H         0.599362   0.287843   2.254668 H        1 UNL1     0.2126
     48 H         1.210751   -1.860672   -0.400822 H        1 UNL1     0.2101
     49 H         -2.065887   0.938965   -0.788722 H        1 UNL1     0.2100
     50 H         -2.67914   -3.328369   -1.169986 H        1 UNL1     0.2102
@<TRIPOS>BOND
     1     1     2    1
     2     1     6    1
     3     2     3    1
     4     3     4    1
     5     3    29    1
     6     3    33    1
     7     4     5    1
     8     5     6    1
     9     5     7    1
    10     5    35    1
    11     7     8    1
    12     8     9   ar
    13     8    13   ar
    14     9    10   ar
    15     9    36    1
    16    10    11   ar
    17    10    26    1
    18    11    12   ar
    19    11    14    1
    20    12    13   ar
    21    12    17    1
    22    13    37    1
    23    14    15    1
    24    14    25    2
    25    15    16    1
    26    15    38    1
    27    15    39    1
    28    16    17    1
    29    16    18    1
    30    16    40    1
    31    18    19   ar
    32    18    23   ar
    33    19    20   ar
    34    19    41    1
    35    20    21   ar
    36    20    42    1
    37    21    22   ar
    38    21    24    1
    39    22    23   ar
    40    22    43    1
    41    23    44    1
    42    24    45    1
    43    26    46    1
    44    27    47    1
    45    28    48    1
    46    29    49    1
    47    30    50    1
    48     1    31    1
    49     1    27    1
    50     2    32    1
    51     2    28    1
    52     4    34    1
    53     4    30    1
