@<TRIPOS>MOLECULE
*****
 50 53 0 0 0
SMALL
GASTEIGER

@<TRIPOS>ATOM
     1 C         -0.368242   -1.396944   1.638215 C.3        1 UNL1     0.1889
     2 C         -0.486566   -0.971779   0.149869 C.3        1 UNL1     0.1342
     3 C         -1.925424   -0.899376   -0.383901 C.3        1 UNL1     0.1174
     4 C         -2.838833   -1.965962   0.225356 C.3        1 UNL1     0.1456
     5 C         -2.691438   -2.065691   1.754635 C.3        1 UNL1     0.2326
     6 O         -1.333084   -2.333026   2.095626 O.3        1 UNL1     -0.3076
     7 O         -3.239722   -0.936233   2.458218 O.3        1 UNL1     -0.4605
     8 C         -3.767954   -1.199533   3.709287 C.ar        1 UNL1     0.1310
     9 C         -4.609976   -2.271523   4.024147 C.ar        1 UNL1     0.0226
     10 C         -5.080509   -2.463314   5.328646 C.ar        1 UNL1     0.1343
     11 C         -4.700833   -1.600496   6.355891 C.ar        1 UNL1     0.1007
     12 C         -3.893532   -0.502884   6.045577 C.ar        1 UNL1     0.1389
     13 C         -3.422688   -0.308752   4.733308 C.ar        1 UNL1     0.0229
     14 C         -5.100398   -1.804172   7.767634 C.2        1 UNL1     0.1740
     15 C         -4.423209   -0.915028   8.768827 C.3        1 UNL1     0.0520
     16 C         -4.318819   0.484133   8.177719 C.3        1 UNL1     0.1322
     17 O         -3.547744   0.468498   6.956134 O.3        1 UNL1     -0.4828
     18 C         -5.662303   1.209601   8.070619 C.ar        1 UNL1     -0.0067
     19 C         -5.686511   2.572807   7.711039 C.ar        1 UNL1     -0.0516
     20 C         -6.894216   3.278286   7.650123 C.ar        1 UNL1     -0.0198
     21 C         -8.081077   2.635262   7.952954 C.ar        1 UNL1     0.1169
     22 C         -8.092967   1.285019   8.277825 C.ar        1 UNL1     -0.0198
     23 C         -6.887309   0.574672   8.320855 C.ar        1 UNL1     -0.0516
     24 O         -9.233435   3.364213   7.919743 O.3        1 UNL1     -0.5068
     25 O         -5.871449   -2.688337   8.131251 O.2        1 UNL1     -0.2917
     26 O         -5.899557   -3.527646   5.569357 O.3        1 UNL1     -0.5058
     27 O         -0.237136   -0.301645   2.530358 O.3        1 UNL1     -0.3648
     28 O         0.221633   -1.931557   -0.656349 O.3        1 UNL1     -0.3841
     29 O         -2.45081   0.422583   -0.247788 O.3        1 UNL1     -0.3863
     30 O         -2.521928   -3.249381   -0.356104 O.3        1 UNL1     -0.3829
     31 H         0.579341   -1.938129   1.734573 H        1 UNL1     0.0937
     32 H         0.0   0.0   0.0 H        1 UNL1     0.0671
     33 H         -1.891784   -1.090022   -1.465679 H        1 UNL1     0.0649
     34 H         -3.883692   -1.750308   -0.023971 H        1 UNL1     0.0683
     35 H         -3.268564   -2.96087   2.018186 H        1 UNL1     0.1085
     36 H         -4.896113   -3.00888   3.282155 H        1 UNL1     0.0691
     37 H         -2.796385   0.554177   4.517457 H        1 UNL1     0.0691
     38 H         -3.431339   -1.334972   8.96724 H        1 UNL1     0.0385
     39 H         -4.993436   -0.927962   9.703949 H        1 UNL1     0.0385
     40 H         -3.718456   1.08559   8.873659 H        1 UNL1     0.0789
     41 H         -4.767532   3.10257   7.477629 H        1 UNL1     0.0623
     42 H         -6.898562   4.33219   7.38314 H        1 UNL1     0.0654
     43 H         -9.018281   0.767914   8.502118 H        1 UNL1     0.0654
     44 H         -6.934873   -0.481495   8.568027 H        1 UNL1     0.0623
     45 H         -9.190697   4.03745   8.618057 H        1 UNL1     0.2921
     46 H         -5.627002   -3.96635   6.390737 H        1 UNL1     0.2922
     47 H         0.507203   0.257379   2.267085 H        1 UNL1     0.2126
     48 H         1.173685   -1.778325   -0.501915 H        1 UNL1     0.2101
     49 H         -2.145152   0.976567   -0.983634 H        1 UNL1     0.2100
     50 H         -2.779494   -3.224187   -1.300952 H        1 UNL1     0.2102
@<TRIPOS>BOND
     1     1     2    1
     2     1     6    1
     3     2     3    1
     4     3     4    1
     5     3    29    1
     6     3    33    1
     7     4     5    1
     8     5     6    1
     9     5     7    1
    10     5    35    1
    11     7     8    1
    12     8     9   ar
    13     8    13   ar
    14     9    10   ar
    15     9    36    1
    16    10    11   ar
    17    10    26    1
    18    11    12   ar
    19    11    14    1
    20    12    13   ar
    21    12    17    1
    22    13    37    1
    23    14    15    1
    24    14    25    2
    25    15    16    1
    26    15    38    1
    27    15    39    1
    28    16    17    1
    29    16    18    1
    30    16    40    1
    31    18    19   ar
    32    18    23   ar
    33    19    20   ar
    34    19    41    1
    35    20    21   ar
    36    20    42    1
    37    21    22   ar
    38    21    24    1
    39    22    23   ar
    40    22    43    1
    41    23    44    1
    42    24    45    1
    43    26    46    1
    44    27    47    1
    45    28    48    1
    46    29    49    1
    47    30    50    1
    48     1    31    1
    49     1    27    1
    50     2    32    1
    51     2    28    1
    52     4    34    1
    53     4    30    1
