@<TRIPOS>MOLECULE
*****
 50 53 0 0 0
SMALL
GASTEIGER

@<TRIPOS>ATOM
     1 C         -0.329455   -1.380748   1.66006 C.3        1 UNL1     0.1889
     2 C         -0.466638   -0.978751   0.166902 C.3        1 UNL1     0.1342
     3 C         -1.910419   -0.941433   -0.357092 C.3        1 UNL1     0.1174
     4 C         -2.798685   -2.016743   0.27363 C.3        1 UNL1     0.1456
     5 C         -2.638422   -2.092266   1.803001 C.3        1 UNL1     0.2326
     6 O         -1.272751   -2.328697   2.137533 O.3        1 UNL1     -0.3076
     7 O         -3.203331   -0.963826   2.494971 O.3        1 UNL1     -0.4605
     8 C         -3.717392   -1.219725   3.753456 C.ar        1 UNL1     0.1310
     9 C         -4.536294   -2.303177   4.08936 C.ar        1 UNL1     0.0226
     10 C         -4.993665   -2.485733   5.399851 C.ar        1 UNL1     0.1343
     11 C         -4.623344   -1.601531   6.41222 C.ar        1 UNL1     0.1007
     12 C         -3.839616   -0.493067   6.080766 C.ar        1 UNL1     0.1389
     13 C         -3.382035   -0.308273   4.762471 C.ar        1 UNL1     0.0229
     14 C         -5.008763   -1.793109   7.829578 C.2        1 UNL1     0.1740
     15 C         -4.341686   -0.877243   8.813319 C.3        1 UNL1     0.0520
     16 C         -4.268554   0.515276   8.202171 C.3        1 UNL1     0.1322
     17 O         -3.506107   0.49739   6.975213 O.3        1 UNL1     -0.4828
     18 C         -5.626518   1.213262   8.09506 C.ar        1 UNL1     -0.0067
     19 C         -5.751976   2.364347   7.290401 C.ar        1 UNL1     -0.0516
     20 C         -6.967472   3.054069   7.207843 C.ar        1 UNL1     -0.0198
     21 C         -8.060413   2.608065   7.929222 C.ar        1 UNL1     0.1169
     22 C         -7.977203   1.45849   8.704072 C.ar        1 UNL1     -0.0198
     23 C         -6.766924   0.758042   8.772292 C.ar        1 UNL1     -0.0516
     24 O         -9.216986   3.327118   7.853718 O.3        1 UNL1     -0.5068
     25 O         -5.759983   -2.686746   8.211109 O.2        1 UNL1     -0.2917
     26 O         -5.790278   -3.562123   5.661339 O.3        1 UNL1     -0.5058
     27 O         -0.213106   -0.270786   2.53598 O.3        1 UNL1     -0.3648
     28 O         0.254141   -1.935922   -0.631225 O.3        1 UNL1     -0.3841
     29 O         -2.460222   0.37197   -0.235353 O.3        1 UNL1     -0.3863
     30 O         -2.461259   -3.301836   -0.292382 O.3        1 UNL1     -0.3829
     31 H         0.629059   -1.90225   1.756831 H        1 UNL1     0.0937
     32 H         0.0   0.0   0.0 H        1 UNL1     0.0671
     33 H         -1.880872   -1.146482   -1.436352 H        1 UNL1     0.0649
     34 H         -3.849272   -1.824683   0.029131 H        1 UNL1     0.0683
     35 H         -3.196263   -2.994589   2.083187 H        1 UNL1     0.1085
     36 H         -4.81347   -3.056175   3.35978 H        1 UNL1     0.0691
     37 H         -2.774063   0.563419   4.530058 H        1 UNL1     0.0691
     38 H         -3.3405   -1.275264   9.010127 H        1 UNL1     0.0385
     39 H         -4.90483   -0.888062   9.752749 H        1 UNL1     0.0385
     40 H         -3.674927   1.137801   8.885245 H        1 UNL1     0.0789
     41 H         -4.906332   2.73989   6.721626 H        1 UNL1     0.0623
     42 H         -7.048301   3.947229   6.593234 H        1 UNL1     0.0654
     43 H         -8.831089   1.091871   9.26119 H        1 UNL1     0.0654
     44 H         -6.740711   -0.141982   9.379017 H        1 UNL1     0.0623
     45 H         -9.062124   4.199635   8.250516 H        1 UNL1     0.2921
     46 H         -5.401318   -4.085532   6.379786 H        1 UNL1     0.2922
     47 H         0.5184   0.298689   2.259473 H        1 UNL1     0.2126
     48 H         1.199176   -1.830556   -0.408651 H        1 UNL1     0.2101
     49 H         -2.027999   0.970363   -0.865356 H        1 UNL1     0.2100
     50 H         -2.726038   -3.294783   -1.235544 H        1 UNL1     0.2102
@<TRIPOS>BOND
     1     1     2    1
     2     1     6    1
     3     2     3    1
     4     3     4    1
     5     3    29    1
     6     3    33    1
     7     4     5    1
     8     5     6    1
     9     5     7    1
    10     5    35    1
    11     7     8    1
    12     8     9   ar
    13     8    13   ar
    14     9    10   ar
    15     9    36    1
    16    10    11   ar
    17    10    26    1
    18    11    12   ar
    19    11    14    1
    20    12    13   ar
    21    12    17    1
    22    13    37    1
    23    14    15    1
    24    14    25    2
    25    15    16    1
    26    15    38    1
    27    15    39    1
    28    16    17    1
    29    16    18    1
    30    16    40    1
    31    18    19   ar
    32    18    23   ar
    33    19    20   ar
    34    19    41    1
    35    20    21   ar
    36    20    42    1
    37    21    22   ar
    38    21    24    1
    39    22    23   ar
    40    22    43    1
    41    23    44    1
    42    24    45    1
    43    26    46    1
    44    27    47    1
    45    28    48    1
    46    29    49    1
    47    30    50    1
    48     1    31    1
    49     1    27    1
    50     2    32    1
    51     2    28    1
    52     4    34    1
    53     4    30    1
