@<TRIPOS>MOLECULE
*****
 50 53 0 0 0
SMALL
GASTEIGER

@<TRIPOS>ATOM
     1 C         -0.395479   -1.380472   1.645813 C.3        1 UNL1     0.1889
     2 C         -0.491866   -0.968758   0.152112 C.3        1 UNL1     0.1342
     3 C         -1.922987   -0.89663   -0.402103 C.3        1 UNL1     0.1174
     4 C         -2.848298   -1.954537   0.20432 C.3        1 UNL1     0.1456
     5 C         -2.722306   -2.040545   1.736343 C.3        1 UNL1     0.2326
     6 O         -1.369686   -2.309122   2.098496 O.3        1 UNL1     -0.3076
     7 O         -3.2764   -0.902827   2.421833 O.3        1 UNL1     -0.4605
     8 C         -3.82269   -1.152783   3.667874 C.ar        1 UNL1     0.1310
     9 C         -4.678122   -2.215102   3.979343 C.ar        1 UNL1     0.0226
     10 C         -5.166758   -2.393691   5.279052 C.ar        1 UNL1     0.1343
     11 C         -4.792404   -1.527152   6.305117 C.ar        1 UNL1     0.1007
     12 C         -3.971517   -0.438874   5.99758 C.ar        1 UNL1     0.1389
     13 C         -3.482452   -0.258001   4.690089 C.ar        1 UNL1     0.0229
     14 C         -5.211539   -1.717507   7.71304 C.2        1 UNL1     0.1740
     15 C         -4.539144   -0.827446   8.716646 C.3        1 UNL1     0.0520
     16 C         -4.414859   0.56661   8.117379 C.3        1 UNL1     0.1322
     17 O         -3.628609   0.535712   6.905799 O.3        1 UNL1     -0.4828
     18 C         -5.750376   1.303129   7.988317 C.ar        1 UNL1     -0.0067
     19 C         -5.762767   2.712488   7.946255 C.ar        1 UNL1     -0.0516
     20 C         -6.969701   3.418454   7.876365 C.ar        1 UNL1     -0.0198
     21 C         -8.168565   2.728444   7.855401 C.ar        1 UNL1     0.1169
     22 C         -8.187467   1.339761   7.861839 C.ar        1 UNL1     -0.0198
     23 C         -6.979947   0.633134   7.9131 C.ar        1 UNL1     -0.0516
     24 O         -9.3252   3.450725   7.825333 O.3        1 UNL1     -0.5068
     25 O         -5.994952   -2.592301   8.072878 O.2        1 UNL1     -0.2917
     26 O         -5.998216   -3.44907   5.516618 O.3        1 UNL1     -0.5058
     27 O         -0.272962   -0.277371   2.529524 O.3        1 UNL1     -0.3648
     28 O         0.224113   -1.938277   -0.63536 O.3        1 UNL1     -0.3841
     29 O         -2.445724   0.428238   -0.285468 O.3        1 UNL1     -0.3863
     30 O         -2.527761   -3.244323   -0.360833 O.3        1 UNL1     -0.3829
     31 H         0.548852   -1.92382   1.760229 H        1 UNL1     0.0937
     32 H         0.0   0.0   0.0 H        1 UNL1     0.0671
     33 H         -1.875105   -1.097418   -1.481507 H        1 UNL1     0.0649
     34 H         -3.888891   -1.737807   -0.061379 H        1 UNL1     0.0683
     35 H         -3.306028   -2.931356   2.000165 H        1 UNL1     0.1085
     36 H         -4.96143   -2.955034   3.238831 H        1 UNL1     0.0691
     37 H         -2.845822   0.597858   4.476311 H        1 UNL1     0.0691
     38 H         -3.553632   -1.254729   8.930472 H        1 UNL1     0.0385
     39 H         -5.121211   -0.828871   9.644533 H        1 UNL1     0.0385
     40 H         -3.817992   1.167563   8.816753 H        1 UNL1     0.0789
     41 H         -4.835537   3.277551   7.970719 H        1 UNL1     0.0623
     42 H         -6.96658   4.505472   7.856489 H        1 UNL1     0.0654
     43 H         -9.120061   0.789125   7.830553 H        1 UNL1     0.0654
     44 H         -7.031651   -0.451357   7.90604 H        1 UNL1     0.0623
     45 H         -9.134205   4.348874   8.140874 H        1 UNL1     0.2921
     46 H         -5.797473   -3.829715   6.386229 H        1 UNL1     0.2922
     47 H         -0.362457   -0.571609   3.446734 H        1 UNL1     0.2126
     48 H         0.957202   -1.460242   -1.068714 H        1 UNL1     0.2101
     49 H         -3.004683   0.494055   0.505119 H        1 UNL1     0.2100
     50 H         -1.574269   -3.246436   -0.58569 H        1 UNL1     0.2102
@<TRIPOS>BOND
     1     1     2    1
     2     1     6    1
     3     2     3    1
     4     3     4    1
     5     3    29    1
     6     3    33    1
     7     4     5    1
     8     5     6    1
     9     5     7    1
    10     5    35    1
    11     7     8    1
    12     8     9   ar
    13     8    13   ar
    14     9    10   ar
    15     9    36    1
    16    10    11   ar
    17    10    26    1
    18    11    12   ar
    19    11    14    1
    20    12    13   ar
    21    12    17    1
    22    13    37    1
    23    14    15    1
    24    14    25    2
    25    15    16    1
    26    15    38    1
    27    15    39    1
    28    16    17    1
    29    16    18    1
    30    16    40    1
    31    18    19   ar
    32    18    23   ar
    33    19    20   ar
    34    19    41    1
    35    20    21   ar
    36    20    42    1
    37    21    22   ar
    38    21    24    1
    39    22    23   ar
    40    22    43    1
    41    23    44    1
    42    24    45    1
    43    26    46    1
    44    27    47    1
    45    28    48    1
    46    29    49    1
    47    30    50    1
    48     1    31    1
    49     1    27    1
    50     2    32    1
    51     2    28    1
    52     4    34    1
    53     4    30    1
