@<TRIPOS>MOLECULE
*****
 50 53 0 0 0
SMALL
GASTEIGER

@<TRIPOS>ATOM
     1 C         -0.309397   -1.343727   1.693953 C.3        1 UNL1     0.1889
     2 C         -0.456586   -0.978843   0.192242 C.3        1 UNL1     0.1342
     3 C         -1.902812   -0.967688   -0.326188 C.3        1 UNL1     0.1174
     4 C         -2.778162   -2.035953   0.33388 C.3        1 UNL1     0.1456
     5 C         -2.61086   -2.073387   1.863904 C.3        1 UNL1     0.2326
     6 O         -1.241623   -2.288855   2.198019 O.3        1 UNL1     -0.3076
     7 O         -3.18364   -0.934114   2.531212 O.3        1 UNL1     -0.4605
     8 C         -3.679378   -1.162089   3.802353 C.ar        1 UNL1     0.1310
     9 C         -4.487466   -2.241479   4.175464 C.ar        1 UNL1     0.0226
     10 C         -4.926247   -2.394559   5.496047 C.ar        1 UNL1     0.1343
     11 C         -4.547552   -1.483972   6.481572 C.ar        1 UNL1     0.1007
     12 C         -3.774719   -0.37966   6.112777 C.ar        1 UNL1     0.1389
     13 C         -3.335844   -0.224532   4.784336 C.ar        1 UNL1     0.0229
     14 C         -4.912911   -1.643079   7.90823 C.2        1 UNL1     0.1740
     15 C         -4.238055   -0.69992   8.860369 C.3        1 UNL1     0.0520
     16 C         -4.181112   0.677683   8.214673 C.3        1 UNL1     0.1322
     17 O         -3.435017   0.634077   6.978344 O.3        1 UNL1     -0.4828
     18 C         -5.544386   1.36546   8.10897 C.ar        1 UNL1     -0.0067
     19 C         -5.938544   1.936738   6.881577 C.ar        1 UNL1     -0.0516
     20 C         -7.157919   2.614309   6.763322 C.ar        1 UNL1     -0.0198
     21 C         -7.986791   2.733565   7.864493 C.ar        1 UNL1     0.1169
     22 C         -7.641525   2.152816   9.077902 C.ar        1 UNL1     -0.0198
     23 C         -6.430674   1.459296   9.191597 C.ar        1 UNL1     -0.0516
     24 O         -9.14894   3.433048   7.721199 O.3        1 UNL1     -0.5068
     25 O         -5.653809   -2.531234   8.32143 O.2        1 UNL1     -0.2917
     26 O         -5.713083   -3.46858   5.794298 O.3        1 UNL1     -0.5058
     27 O         -0.200019   -0.2121   2.542624 O.3        1 UNL1     -0.3648
     28 O         0.269984   -1.94797   -0.585959 O.3        1 UNL1     -0.3841
     29 O         -2.464611   0.343003   -0.233423 O.3        1 UNL1     -0.3863
     30 O         -2.430837   -3.330964   -0.202776 O.3        1 UNL1     -0.3829
     31 H         0.65444   -1.853698   1.798955 H        1 UNL1     0.0937
     32 H         0.0   0.0   0.0 H        1 UNL1     0.0671
     33 H         -1.875776   -1.198183   -1.400367 H        1 UNL1     0.0649
     34 H         -3.831537   -1.859714   0.089456 H        1 UNL1     0.0683
     35 H         -3.158904   -2.973981   2.167971 H        1 UNL1     0.1085
     36 H         -4.770009   -3.013512   3.468178 H        1 UNL1     0.0691
     37 H         -2.736062   0.644537   4.52266 H        1 UNL1     0.0691
     38 H         -3.232054   -1.087582   9.053265 H        1 UNL1     0.0385
     39 H         -4.788541   -0.690927   9.807292 H        1 UNL1     0.0385
     40 H         -3.582021   1.319873   8.874372 H        1 UNL1     0.0789
     41 H         -5.301498   1.86475   6.004856 H        1 UNL1     0.0623
     42 H         -7.445199   3.060792   5.814567 H        1 UNL1     0.0654
     43 H         -8.290109   2.227233   9.942605 H        1 UNL1     0.0654
     44 H         -6.197698   1.00902   10.151711 H        1 UNL1     0.0623
     45 H         -9.891143   2.83738   7.913634 H        1 UNL1     0.2921
     46 H         -5.299096   -3.986052   6.502994 H        1 UNL1     0.2922
     47 H         0.538012   0.346819   2.261947 H        1 UNL1     0.2126
     48 H         1.205283   -1.881467   -0.312966 H        1 UNL1     0.2101
     49 H         -2.034527   0.932442   -0.873253 H        1 UNL1     0.2100
     50 H         -2.673708   -3.33906   -1.151808 H        1 UNL1     0.2102
@<TRIPOS>BOND
     1     1     2    1
     2     1     6    1
     3     2     3    1
     4     3     4    1
     5     3    29    1
     6     3    33    1
     7     4     5    1
     8     5     6    1
     9     5     7    1
    10     5    35    1
    11     7     8    1
    12     8     9   ar
    13     8    13   ar
    14     9    10   ar
    15     9    36    1
    16    10    11   ar
    17    10    26    1
    18    11    12   ar
    19    11    14    1
    20    12    13   ar
    21    12    17    1
    22    13    37    1
    23    14    15    1
    24    14    25    2
    25    15    16    1
    26    15    38    1
    27    15    39    1
    28    16    17    1
    29    16    18    1
    30    16    40    1
    31    18    19   ar
    32    18    23   ar
    33    19    20   ar
    34    19    41    1
    35    20    21   ar
    36    20    42    1
    37    21    22   ar
    38    21    24    1
    39    22    23   ar
    40    22    43    1
    41    23    44    1
    42    24    45    1
    43    26    46    1
    44    27    47    1
    45    28    48    1
    46    29    49    1
    47    30    50    1
    48     1    31    1
    49     1    27    1
    50     2    32    1
    51     2    28    1
    52     4    34    1
    53     4    30    1
