@<TRIPOS>MOLECULE
*****
 50 53 0 0 0
SMALL
GASTEIGER

@<TRIPOS>ATOM
     1 C         -1.361413   -1.674912   0.334705 C.3        1 UNL1     0.1889
     2 C         -0.695861   -0.343483   0.775473 C.3        1 UNL1     0.1342
     3 C         0.045388   -0.411287   2.119504 C.3        1 UNL1     0.1174
     4 C         -0.632593   -1.345635   3.124717 C.3        1 UNL1     0.1456
     5 C         -1.024441   -2.698097   2.50209 C.3        1 UNL1     0.2326
     6 O         -1.877089   -2.487328   1.378953 O.3        1 UNL1     -0.3076
     7 O         0.103782   -3.54107   2.205725 O.3        1 UNL1     -0.4605
     8 C         1.284263   -2.888354   1.899207 C.ar        1 UNL1     0.1310
     9 C         1.764775   -2.646515   0.607726 C.ar        1 UNL1     0.0226
     10 C         2.966816   -1.959736   0.399556 C.ar        1 UNL1     0.1343
     11 C         3.706247   -1.476811   1.478382 C.ar        1 UNL1     0.1007
     12 C         3.257553   -1.747893   2.773748 C.ar        1 UNL1     0.1389
     13 C         2.05023   -2.44077   2.98285 C.ar        1 UNL1     0.0229
     14 C         4.939242   -0.672539   1.31399 C.2        1 UNL1     0.1740
     15 C         5.479544   -0.048886   2.567257 C.3        1 UNL1     0.0520
     16 C         5.345071   -1.054458   3.702465 C.3        1 UNL1     0.1322
     17 O         3.960998   -1.414004   3.907745 O.3        1 UNL1     -0.4828
     18 C         6.299455   -2.245473   3.586887 C.ar        1 UNL1     -0.0067
     19 C         7.20215   -2.513957   4.636303 C.ar        1 UNL1     -0.0516
     20 C         8.120624   -3.566338   4.54216 C.ar        1 UNL1     -0.0198
     21 C         8.1513   -4.35113   3.403307 C.ar        1 UNL1     0.1169
     22 C         7.252626   -4.132457   2.367253 C.ar        1 UNL1     -0.0198
     23 C         6.321714   -3.09173   2.468966 C.ar        1 UNL1     -0.0516
     24 O         9.08479   -5.343013   3.331445 O.3        1 UNL1     -0.5068
     25 O         5.45985   -0.448135   0.224451 O.2        1 UNL1     -0.2917
     26 O         3.380527   -1.757536   -0.884789 O.3        1 UNL1     -0.5058
     27 O         -0.573132   -2.427419   -0.573663 O.3        1 UNL1     -0.3648
     28 O         -1.72133   0.659079   0.901923 O.3        1 UNL1     -0.3841
     29 O         1.426677   -0.719625   1.921764 O.3        1 UNL1     -0.3863
     30 O         -1.82314   -0.707779   3.636017 O.3        1 UNL1     -0.3829
     31 H         -2.252247   -1.403378   -0.242152 H        1 UNL1     0.0937
     32 H         0.0   0.0   0.0 H        1 UNL1     0.0671
     33 H         0.031381   0.594854   2.561322 H        1 UNL1     0.0649
     34 H         0.030215   -1.519537   3.979612 H        1 UNL1     0.0683
     35 H         -1.632254   -3.180288   3.277934 H        1 UNL1     0.1085
     36 H         1.208414   -2.947197   -0.273281 H        1 UNL1     0.0691
     37 H         1.723353   -2.640076   4.001144 H        1 UNL1     0.0691
     38 H         4.892569   0.853797   2.767633 H        1 UNL1     0.0385
     39 H         6.51998   0.24983   2.399807 H        1 UNL1     0.0385
     40 H         5.634883   -0.538589   4.627888 H        1 UNL1     0.0789
     41 H         7.204218   -1.906742   5.536823 H        1 UNL1     0.0623
     42 H         8.819544   -3.755835   5.353093 H        1 UNL1     0.0654
     43 H         7.257932   -4.750468   1.477341 H        1 UNL1     0.0654
     44 H         5.627558   -2.956127   1.645192 H        1 UNL1     0.0623
     45 H         8.625059   -6.198152   3.341556 H        1 UNL1     0.2921
     46 H         3.283205   -0.819312   -1.112112 H        1 UNL1     0.2922
     47 H         -1.025771   -3.24956   -0.808314 H        1 UNL1     0.2126
     48 H         -2.19844   0.680147   0.050069 H        1 UNL1     0.2101
     49 H         1.575697   -0.991849   1.002264 H        1 UNL1     0.2100
     50 H         -2.574668   -1.322241   3.504276 H        1 UNL1     0.2102
@<TRIPOS>BOND
     1     1     2    1
     2     1     6    1
     3     2     3    1
     4     3     4    1
     5     3    29    1
     6     3    33    1
     7     4     5    1
     8     5     6    1
     9     5     7    1
    10     5    35    1
    11     7     8    1
    12     8     9   ar
    13     8    13   ar
    14     9    10   ar
    15     9    36    1
    16    10    11   ar
    17    10    26    1
    18    11    12   ar
    19    11    14    1
    20    12    13   ar
    21    12    17    1
    22    13    37    1
    23    14    15    1
    24    14    25    2
    25    15    16    1
    26    15    38    1
    27    15    39    1
    28    16    17    1
    29    16    18    1
    30    16    40    1
    31    18    19   ar
    32    18    23   ar
    33    19    20   ar
    34    19    41    1
    35    20    21   ar
    36    20    42    1
    37    21    22   ar
    38    21    24    1
    39    22    23   ar
    40    22    43    1
    41    23    44    1
    42    24    45    1
    43    26    46    1
    44    27    47    1
    45    28    48    1
    46    29    49    1
    47    30    50    1
    48     1    31    1
    49     1    27    1
    50     2    32    1
    51     2    28    1
    52     4    34    1
    53     4    30    1
