@<TRIPOS>MOLECULE
*****
 50 53 0 0 0
SMALL
GASTEIGER

@<TRIPOS>ATOM
     1 C         -1.323098   0.972572   -1.44025 C.3        1 UNL1     0.1889
     2 C         -0.175881   1.008269   -0.394995 C.3        1 UNL1     0.1342
     3 C         -0.407191   1.972801   0.778308 C.3        1 UNL1     0.1174
     4 C         -1.162273   3.238834   0.365841 C.3        1 UNL1     0.1456
     5 C         -2.392187   2.934002   -0.508661 C.3        1 UNL1     0.2326
     6 O         -1.996039   2.202349   -1.666512 O.3        1 UNL1     -0.3076
     7 O         -3.468958   2.309904   0.214103 O.3        1 UNL1     -0.4605
     8 C         -3.247001   1.008938   0.62853 C.ar        1 UNL1     0.1310
     9 C         -4.195464   0.178961   1.235865 C.ar        1 UNL1     0.0226
     10 C         -3.877996   -1.133583   1.605113 C.ar        1 UNL1     0.1343
     11 C         -2.610088   -1.656297   1.354074 C.ar        1 UNL1     0.1007
     12 C         -1.642254   -0.823954   0.785493 C.ar        1 UNL1     0.1389
     13 C         -1.960932   0.496607   0.416719 C.ar        1 UNL1     0.0229
     14 C         -2.246095   -3.061971   1.646894 C.2        1 UNL1     0.1740
     15 C         -0.919921   -3.514545   1.110248 C.3        1 UNL1     0.0520
     16 C         0.086599   -2.3882   1.300566 C.3        1 UNL1     0.1322
     17 O         -0.333198   -1.200442   0.593409 O.3        1 UNL1     -0.4828
     18 C         0.477883   -2.151799   2.761297 C.ar        1 UNL1     -0.0067
     19 C         -0.008517   -1.011231   3.432663 C.ar        1 UNL1     -0.0516
     20 C         0.367899   -0.740204   4.753579 C.ar        1 UNL1     -0.0198
     21 C         1.233992   -1.596146   5.41014 C.ar        1 UNL1     0.1169
     22 C         1.703337   -2.745104   4.786884 C.ar        1 UNL1     -0.0198
     23 C         1.312469   -3.026117   3.472232 C.ar        1 UNL1     -0.0516
     24 O         1.608194   -1.279638   6.68301 O.3        1 UNL1     -0.5068
     25 O         -2.995544   -3.849441   2.218473 O.2        1 UNL1     -0.2917
     26 O         -4.847974   -1.890753   2.194537 O.3        1 UNL1     -0.5058
     27 O         -2.235948   -0.095138   -1.241538 O.3        1 UNL1     -0.3648
     28 O         1.032814   1.422694   -1.058331 O.3        1 UNL1     -0.3841
     29 O         -1.020227   1.296183   1.877629 O.3        1 UNL1     -0.3863
     30 O         -0.270838   4.102883   -0.372028 O.3        1 UNL1     -0.3829
     31 H         -0.858169   0.753333   -2.407646 H        1 UNL1     0.0937
     32 H         0.0   0.0   0.0 H        1 UNL1     0.0671
     33 H         0.576828   2.295325   1.146282 H        1 UNL1     0.0649
     34 H         -1.480052   3.791733   1.256751 H        1 UNL1     0.0683
     35 H         -2.723092   3.921738   -0.853273 H        1 UNL1     0.1085
     36 H         -5.214649   0.507724   1.407032 H        1 UNL1     0.0691
     37 H         -1.189243   1.124624   -0.023263 H        1 UNL1     0.0691
     38 H         -1.054612   -3.748701   0.048854 H        1 UNL1     0.0385
     39 H         -0.617617   -4.431704   1.627171 H        1 UNL1     0.0385
     40 H         1.013742   -2.694114   0.797234 H        1 UNL1     0.0789
     41 H         -0.682285   -0.319034   2.936124 H        1 UNL1     0.0623
     42 H         -0.004521   0.148864   5.256445 H        1 UNL1     0.0654
     43 H         2.370072   -3.43011   5.296924 H        1 UNL1     0.0654
     44 H         1.689928   -3.938076   3.019792 H        1 UNL1     0.0623
     45 H         1.717532   -0.316564   6.740031 H        1 UNL1     0.2921
     46 H         -5.701698   -1.435173   2.123729 H        1 UNL1     0.2922
     47 H         -1.891232   -0.711736   -0.580601 H        1 UNL1     0.2126
     48 H         1.414227   2.142999   -0.520358 H        1 UNL1     0.2101
     49 H         -1.671845   0.656295   1.549402 H        1 UNL1     0.2100
     50 H         0.596117   3.652182   -0.442537 H        1 UNL1     0.2102
@<TRIPOS>BOND
     1     1     2    1
     2     1     6    1
     3     2     3    1
     4     3     4    1
     5     3    29    1
     6     3    33    1
     7     4     5    1
     8     5     6    1
     9     5     7    1
    10     5    35    1
    11     7     8    1
    12     8     9   ar
    13     8    13   ar
    14     9    10   ar
    15     9    36    1
    16    10    11   ar
    17    10    26    1
    18    11    12   ar
    19    11    14    1
    20    12    13   ar
    21    12    17    1
    22    13    37    1
    23    14    15    1
    24    14    25    2
    25    15    16    1
    26    15    38    1
    27    15    39    1
    28    16    17    1
    29    16    18    1
    30    16    40    1
    31    18    19   ar
    32    18    23   ar
    33    19    20   ar
    34    19    41    1
    35    20    21   ar
    36    20    42    1
    37    21    22   ar
    38    21    24    1
    39    22    23   ar
    40    22    43    1
    41    23    44    1
    42    24    45    1
    43    26    46    1
    44    27    47    1
    45    28    48    1
    46    29    49    1
    47    30    50    1
    48     1    31    1
    49     1    27    1
    50     2    32    1
    51     2    28    1
    52     4    34    1
    53     4    30    1
