@<TRIPOS>MOLECULE
*****
 50 53 0 0 0
SMALL
GASTEIGER

@<TRIPOS>ATOM
     1 C         -0.25157   -1.288884   1.745364 C.3        1 UNL1     0.1889
     2 C         -0.418044   -0.987496   0.231629 C.3        1 UNL1     0.1342
     3 C         -1.865494   -1.051337   -0.279523 C.3        1 UNL1     0.1174
     4 C         -2.69688   -2.126238   0.425108 C.3        1 UNL1     0.1456
     5 C         -2.522753   -2.098805   1.954582 C.3        1 UNL1     0.2326
     6 O         -1.14507   -2.248955   2.289714 O.3        1 UNL1     -0.3076
     7 O         -3.136363   -0.957565   2.580981 O.3        1 UNL1     -0.4605
     8 C         -3.628973   -1.158776   3.857843 C.ar        1 UNL1     0.1310
     9 C         -4.401456   -2.251657   4.265497 C.ar        1 UNL1     0.0226
     10 C         -4.839871   -2.374438   5.589362 C.ar        1 UNL1     0.1343
     11 C         -4.496033   -1.418425   6.544168 C.ar        1 UNL1     0.1007
     12 C         -3.759646   -0.301702   6.13988 C.ar        1 UNL1     0.1389
     13 C         -3.321178   -0.17714   4.808091 C.ar        1 UNL1     0.0229
     14 C         -4.861272   -1.541112   7.974448 C.2        1 UNL1     0.1740
     15 C         -4.222421   -0.543636   8.895568 C.3        1 UNL1     0.0520
     16 C         -4.209703   0.812284   8.203271 C.3        1 UNL1     0.1322
     17 O         -3.457814   0.751926   6.971163 O.3        1 UNL1     -0.4828
     18 C         -5.595079   1.449319   8.070441 C.ar        1 UNL1     -0.0067
     19 C         -5.996712   1.980691   6.827642 C.ar        1 UNL1     -0.0516
     20 C         -7.237803   2.612331   6.683809 C.ar        1 UNL1     -0.0198
     21 C         -8.081287   2.725255   7.774502 C.ar        1 UNL1     0.1169
     22 C         -7.728044   2.182407   9.003068 C.ar        1 UNL1     -0.0198
     23 C         -6.494869   1.534437   9.142601 C.ar        1 UNL1     -0.0516
     24 O         -9.265707   3.38028   7.605701 O.3        1 UNL1     -0.5068
     25 O         -5.573237   -2.43933   8.415805 O.2        1 UNL1     -0.2917
     26 O         -5.591007   -3.463788   5.922073 O.3        1 UNL1     -0.5058
     27 O         -0.18258   -0.122325   2.54983 O.3        1 UNL1     -0.3648
     28 O         0.342321   -1.957205   -0.512828 O.3        1 UNL1     -0.3841
     29 O         -2.47677   0.239548   -0.233818 O.3        1 UNL1     -0.3863
     30 O         -2.302119   -3.426602   -0.063673 O.3        1 UNL1     -0.3829
     31 H         0.731474   -1.757325   1.8648 H        1 UNL1     0.0937
     32 H         0.0   0.0   0.0 H        1 UNL1     0.0671
     33 H         -1.833516   -1.321486   -1.344284 H        1 UNL1     0.0649
     34 H         -3.757108   -1.999783   0.179494 H        1 UNL1     0.0683
     35 H         -3.034784   -3.007386   2.295442 H        1 UNL1     0.1085
     36 H         -4.654961   -3.056521   3.584284 H        1 UNL1     0.0691
     37 H         -2.750183   0.702384   4.518444 H        1 UNL1     0.0691
     38 H         -3.204613   -0.890075   9.104312 H        1 UNL1     0.0385
     39 H         -4.77653   -0.521072   9.840148 H        1 UNL1     0.0385
     40 H         -3.635252   1.496591   8.842216 H        1 UNL1     0.0789
     41 H         -5.348819   1.912921   5.958567 H        1 UNL1     0.0623
     42 H         -7.531042   3.028576   5.723204 H        1 UNL1     0.0654
     43 H         -8.387432   2.251949   9.85997 H        1 UNL1     0.0654
     44 H         -6.255877   1.112728   10.114141 H        1 UNL1     0.0623
     45 H         -9.075175   4.300839   7.362834 H        1 UNL1     0.2921
     46 H         -5.163834   -3.940917   6.650965 H        1 UNL1     0.2922
     47 H         0.518888   0.46289   2.231515 H        1 UNL1     0.2126
     48 H         1.280179   -1.815659   -0.280188 H        1 UNL1     0.2101
     49 H         -2.077791   0.817519   -0.903563 H        1 UNL1     0.2100
     50 H         -2.553033   -3.482298   -1.009005 H        1 UNL1     0.2102
@<TRIPOS>BOND
     1     1     2    1
     2     1     6    1
     3     2     3    1
     4     3     4    1
     5     3    29    1
     6     3    33    1
     7     4     5    1
     8     5     6    1
     9     5     7    1
    10     5    35    1
    11     7     8    1
    12     8     9   ar
    13     8    13   ar
    14     9    10   ar
    15     9    36    1
    16    10    11   ar
    17    10    26    1
    18    11    12   ar
    19    11    14    1
    20    12    13   ar
    21    12    17    1
    22    13    37    1
    23    14    15    1
    24    14    25    2
    25    15    16    1
    26    15    38    1
    27    15    39    1
    28    16    17    1
    29    16    18    1
    30    16    40    1
    31    18    19   ar
    32    18    23   ar
    33    19    20   ar
    34    19    41    1
    35    20    21   ar
    36    20    42    1
    37    21    22   ar
    38    21    24    1
    39    22    23   ar
    40    22    43    1
    41    23    44    1
    42    24    45    1
    43    26    46    1
    44    27    47    1
    45    28    48    1
    46    29    49    1
    47    30    50    1
    48     1    31    1
    49     1    27    1
    50     2    32    1
    51     2    28    1
    52     4    34    1
    53     4    30    1
