@<TRIPOS>MOLECULE
*****
 50 53 0 0 0
SMALL
GASTEIGER

@<TRIPOS>ATOM
     1 C         0.926161   0.044772   1.977631 C.3        1 UNL1     0.1889
     2 C         -0.318165   0.022172   1.049686 C.3        1 UNL1     0.1342
     3 C         -1.291537   1.193247   1.253638 C.3        1 UNL1     0.1174
     4 C         -1.382679   1.641731   2.714347 C.3        1 UNL1     0.1456
     5 C         0.000784   1.792651   3.372842 C.3        1 UNL1     0.2326
     6 O         0.718554   0.564   3.282889 O.3        1 UNL1     -0.3076
     7 O         0.748   2.921574   2.884453 O.3        1 UNL1     -0.4605
     8 C         1.602695   3.521257   3.79187 C.ar        1 UNL1     0.1310
     9 C         1.28193   3.846858   5.114138 C.ar        1 UNL1     0.0226
     10 C         2.224931   4.438639   5.962929 C.ar        1 UNL1     0.1343
     11 C         3.520164   4.697637   5.516686 C.ar        1 UNL1     0.1007
     12 C         3.840058   4.41462   4.18614 C.ar        1 UNL1     0.1389
     13 C         2.890904   3.822021   3.332112 C.ar        1 UNL1     0.0229
     14 C         4.580385   5.244004   6.395076 C.2        1 UNL1     0.1740
     15 C         5.964586   5.249457   5.815845 C.3        1 UNL1     0.0520
     16 C         5.872575   5.656619   4.351704 C.3        1 UNL1     0.1322
     17 O         5.050224   4.72747   3.611779 O.3        1 UNL1     -0.4828
     18 C         5.510802   7.12916   4.143215 C.ar        1 UNL1     -0.0067
     19 C         4.483842   7.468619   3.238597 C.ar        1 UNL1     -0.0516
     20 C         4.159987   8.807576   2.989047 C.ar        1 UNL1     -0.0198
     21 C         4.859055   9.814205   3.630786 C.ar        1 UNL1     0.1169
     22 C         5.852975   9.510847   4.552163 C.ar        1 UNL1     -0.0198
     23 C         6.16454   8.171626   4.815738 C.ar        1 UNL1     -0.0516
     24 O         4.541287   11.107042   3.334143 O.3        1 UNL1     -0.5068
     25 O         4.381545   5.60059   7.553434 O.2        1 UNL1     -0.2917
     26 O         1.848314   4.732463   7.240979 O.3        1 UNL1     -0.5058
     27 O         2.076599   0.607327   1.367049 O.3        1 UNL1     -0.3648
     28 O         -1.050678   -1.192011   1.298465 O.3        1 UNL1     -0.3841
     29 O         -0.985567   2.267923   0.362803 O.3        1 UNL1     -0.3863
     30 O         -2.148642   0.671365   3.460927 O.3        1 UNL1     -0.3829
     31 H         1.20059   -1.000255   2.158425 H        1 UNL1     0.0937
     32 H         0.0   0.0   -0.0 H        1 UNL1     0.0671
     33 H         -2.294415   0.850181   0.963359 H        1 UNL1     0.0649
     34 H         -1.920436   2.594027   2.780318 H        1 UNL1     0.0683
     35 H         -0.227386   1.951779   4.434207 H        1 UNL1     0.1085
     36 H         0.309689   3.619702   5.53754 H        1 UNL1     0.0691
     37 H         3.164517   3.612568   2.300241 H        1 UNL1     0.0691
     38 H         6.37102   4.237744   5.91965 H        1 UNL1     0.0385
     39 H         6.594056   5.932211   6.396702 H        1 UNL1     0.0385
     40 H         6.875649   5.539828   3.919589 H        1 UNL1     0.0789
     41 H         3.926477   6.697134   2.715332 H        1 UNL1     0.0623
     42 H         3.374078   9.056756   2.280338 H        1 UNL1     0.0654
     43 H         6.396462   10.291058   5.071588 H        1 UNL1     0.0654
     44 H         6.939415   7.970943   5.549318 H        1 UNL1     0.0623
     45 H         4.695917   11.251175   2.386498 H        1 UNL1     0.2921
     46 H         2.448139   4.292862   7.864175 H        1 UNL1     0.2922
     47 H         2.282311   0.139503   0.545658 H        1 UNL1     0.2126
     48 H         -0.451529   -1.930586   1.076521 H        1 UNL1     0.2101
     49 H         -1.195046   2.010459   -0.549131 H        1 UNL1     0.2100
     50 H         -3.067475   0.686758   3.121483 H        1 UNL1     0.2102
@<TRIPOS>BOND
     1     1     2    1
     2     1     6    1
     3     2     3    1
     4     3     4    1
     5     3    29    1
     6     3    33    1
     7     4     5    1
     8     5     6    1
     9     5     7    1
    10     5    35    1
    11     7     8    1
    12     8     9   ar
    13     8    13   ar
    14     9    10   ar
    15     9    36    1
    16    10    11   ar
    17    10    26    1
    18    11    12   ar
    19    11    14    1
    20    12    13   ar
    21    12    17    1
    22    13    37    1
    23    14    15    1
    24    14    25    2
    25    15    16    1
    26    15    38    1
    27    15    39    1
    28    16    17    1
    29    16    18    1
    30    16    40    1
    31    18    19   ar
    32    18    23   ar
    33    19    20   ar
    34    19    41    1
    35    20    21   ar
    36    20    42    1
    37    21    22   ar
    38    21    24    1
    39    22    23   ar
    40    22    43    1
    41    23    44    1
    42    24    45    1
    43    26    46    1
    44    27    47    1
    45    28    48    1
    46    29    49    1
    47    30    50    1
    48     1    31    1
    49     1    27    1
    50     2    32    1
    51     2    28    1
    52     4    34    1
    53     4    30    1
