@<TRIPOS>MOLECULE
*****
 50 53 0 0 0
SMALL
GASTEIGER

@<TRIPOS>ATOM
     1 C         -0.330276   -1.327176   1.703034 C.3        1 UNL1     0.1889
     2 C         -0.461625   -0.975591   0.196689 C.3        1 UNL1     0.1342
     3 C         -1.902684   -0.964599   -0.33594 C.3        1 UNL1     0.1174
     4 C         -2.787904   -2.023997   0.325254 C.3        1 UNL1     0.1456
     5 C         -2.635652   -2.047953   1.857119 C.3        1 UNL1     0.2326
     6 O         -1.270447   -2.264691   2.206561 O.3        1 UNL1     -0.3076
     7 O         -3.211197   -0.900809   2.508371 O.3        1 UNL1     -0.4605
     8 C         -3.720045   -1.115566   3.77663 C.ar        1 UNL1     0.1310
     9 C         -4.70593   -2.051831   4.106385 C.ar        1 UNL1     0.0226
     10 C         -5.144307   -2.206589   5.426908 C.ar        1 UNL1     0.1343
     11 C         -4.58984   -1.444642   6.45445 C.ar        1 UNL1     0.1007
     12 C         -3.633983   -0.477794   6.131452 C.ar        1 UNL1     0.1389
     13 C         -3.195265   -0.320542   4.803209 C.ar        1 UNL1     0.0229
     14 C         -4.955461   -1.625411   7.878457 C.2        1 UNL1     0.1740
     15 C         -4.104441   -0.883151   8.866569 C.3        1 UNL1     0.0520
     16 C         -3.806701   0.499535   8.303109 C.3        1 UNL1     0.1322
     17 O         -3.100881   0.400106   7.046526 O.3        1 UNL1     -0.4828
     18 C         -5.022655   1.42875   8.275894 C.ar        1 UNL1     -0.0067
     19 C         -5.32501   2.139285   7.096091 C.ar        1 UNL1     -0.0516
     20 C         -6.401577   3.033156   7.051828 C.ar        1 UNL1     -0.0198
     21 C         -7.177138   3.230384   8.180294 C.ar        1 UNL1     0.1169
     22 C         -6.924798   2.520326   9.346905 C.ar        1 UNL1     -0.0198
     23 C         -5.8596   1.612643   9.385895 C.ar        1 UNL1     -0.0516
     24 O         -8.19384   4.136965   8.110802 O.3        1 UNL1     -0.5068
     25 O         -5.839681   -2.388774   8.257823 O.2        1 UNL1     -0.2917
     26 O         -6.109506   -3.136671   5.681707 O.3        1 UNL1     -0.5058
     27 O         -0.225492   -0.188179   2.542376 O.3        1 UNL1     -0.3648
     28 O         0.269336   -1.954098   -0.565495 O.3        1 UNL1     -0.3841
     29 O         -2.461087   0.34866   -0.260635 O.3        1 UNL1     -0.3863
     30 O         -2.439584   -3.324961   -0.196143 O.3        1 UNL1     -0.3829
     31 H         0.630825   -1.839216   1.822106 H        1 UNL1     0.0937
     32 H         0.0   0.0   0.0 H        1 UNL1     0.0671
     33 H         -1.865926   -1.205003   -1.407656 H        1 UNL1     0.0649
     34 H         -3.838266   -1.846666   0.068942 H        1 UNL1     0.0683
     35 H         -3.189566   -2.943984   2.164015 H        1 UNL1     0.1085
     36 H         -5.13612   -2.713019   3.362149 H        1 UNL1     0.0691
     37 H         -2.450851   0.440053   4.577742 H        1 UNL1     0.0691
     38 H         -3.183402   -1.458545   9.008466 H        1 UNL1     0.0385
     39 H         -4.628901   -0.834752   9.826974 H        1 UNL1     0.0385
     40 H         -3.089853   0.97886   8.983475 H        1 UNL1     0.0789
     41 H         -4.725818   2.008942   6.199637 H        1 UNL1     0.0623
     42 H         -6.617294   3.584032   6.13968 H        1 UNL1     0.0654
     43 H         -7.535077   2.655915   10.231826 H        1 UNL1     0.0654
     44 H         -5.697778   1.06718   10.310626 H        1 UNL1     0.0623
     45 H         -7.81549   5.006811   7.903593 H        1 UNL1     0.2921
     46 H         -5.786075   -3.764686   6.346839 H        1 UNL1     0.2922
     47 H         0.517058   0.365805   2.263843 H        1 UNL1     0.2126
     48 H         1.202201   -1.887819   -0.284241 H        1 UNL1     0.2101
     49 H         -2.022866   0.930851   -0.901579 H        1 UNL1     0.2100
     50 H         -2.673215   -3.340975   -1.147391 H        1 UNL1     0.2102
@<TRIPOS>BOND
     1     1     2    1
     2     1     6    1
     3     2     3    1
     4     3     4    1
     5     3    29    1
     6     3    33    1
     7     4     5    1
     8     5     6    1
     9     5     7    1
    10     5    35    1
    11     7     8    1
    12     8     9   ar
    13     8    13   ar
    14     9    10   ar
    15     9    36    1
    16    10    11   ar
    17    10    26    1
    18    11    12   ar
    19    11    14    1
    20    12    13   ar
    21    12    17    1
    22    13    37    1
    23    14    15    1
    24    14    25    2
    25    15    16    1
    26    15    38    1
    27    15    39    1
    28    16    17    1
    29    16    18    1
    30    16    40    1
    31    18    19   ar
    32    18    23   ar
    33    19    20   ar
    34    19    41    1
    35    20    21   ar
    36    20    42    1
    37    21    22   ar
    38    21    24    1
    39    22    23   ar
    40    22    43    1
    41    23    44    1
    42    24    45    1
    43    26    46    1
    44    27    47    1
    45    28    48    1
    46    29    49    1
    47    30    50    1
    48     1    31    1
    49     1    27    1
    50     2    32    1
    51     2    28    1
    52     4    34    1
    53     4    30    1
