@<TRIPOS>MOLECULE
*****
 50 53 0 0 0
SMALL
GASTEIGER

@<TRIPOS>ATOM
     1 C         -0.33903   -1.333288   1.696528 C.3        1 UNL1     0.1889
     2 C         -0.465702   -0.974698   0.191434 C.3        1 UNL1     0.1342
     3 C         -1.905517   -0.956008   -0.344335 C.3        1 UNL1     0.1174
     4 C         -2.79616   -2.014937   0.310295 C.3        1 UNL1     0.1456
     5 C         -2.647418   -2.046091   1.842375 C.3        1 UNL1     0.2326
     6 O         -1.283816   -2.269448   2.1939 O.3        1 UNL1     -0.3076
     7 O         -3.220129   -0.89963   2.497319 O.3        1 UNL1     -0.4605
     8 C         -3.746605   -1.121336   3.757159 C.ar        1 UNL1     0.1310
     9 C         -4.576453   -2.190324   4.112009 C.ar        1 UNL1     0.0226
     10 C         -5.046122   -2.337874   5.422559 C.ar        1 UNL1     0.1343
     11 C         -4.677596   -1.43228   6.416505 C.ar        1 UNL1     0.1007
     12 C         -3.882768   -0.337922   6.065203 C.ar        1 UNL1     0.1389
     13 C         -3.412807   -0.188325   4.746799 C.ar        1 UNL1     0.0229
     14 C         -5.076278   -1.586804   7.834718 C.2        1 UNL1     0.1740
     15 C         -4.410536   -0.652428   8.801817 C.3        1 UNL1     0.0520
     16 C         -4.321775   0.724381   8.15802 C.3        1 UNL1     0.1322
     17 O         -3.549263   0.671322   6.938397 O.3        1 UNL1     -0.4828
     18 C         -5.673481   1.429556   8.022579 C.ar        1 UNL1     -0.0067
     19 C         -6.031943   2.008459   6.787836 C.ar        1 UNL1     -0.0516
     20 C         -7.239639   2.701638   6.643144 C.ar        1 UNL1     -0.0198
     21 C         -8.092179   2.828939   7.725178 C.ar        1 UNL1     0.1169
     22 C         -7.78239   2.241213   8.944787 C.ar        1 UNL1     -0.0198
     23 C         -6.58331   1.532204   9.084685 C.ar        1 UNL1     -0.0516
     24 O         -9.241815   3.54336   7.556829 O.3        1 UNL1     -0.5068
     25 O         -5.837394   -2.465435   8.231195 O.2        1 UNL1     -0.2917
     26 O         -5.853007   -3.40176   5.703037 O.3        1 UNL1     -0.5058
     27 O         -0.231868   -0.198335   2.54103 O.3        1 UNL1     -0.3648
     28 O         0.263301   -1.952627   -0.573364 O.3        1 UNL1     -0.3841
     29 O         -2.459181   0.358993   -0.264575 O.3        1 UNL1     -0.3863
     30 O         -2.451536   -3.314927   -0.215964 O.3        1 UNL1     -0.3829
     31 H         0.619885   -1.849432   1.815508 H        1 UNL1     0.0937
     32 H         0.0   0.0   0.0 H        1 UNL1     0.0671
     33 H         -1.867265   -1.191907   -1.416999 H        1 UNL1     0.0649
     34 H         -3.845277   -1.832568   0.052427 H        1 UNL1     0.0683
     35 H         -3.205357   -2.941363   2.144155 H        1 UNL1     0.1085
     36 H         -4.85321   -2.958627   3.398401 H        1 UNL1     0.0691
     37 H         -2.796341   0.673017   4.498697 H        1 UNL1     0.0691
     38 H         -3.414068   -1.052946   9.016671 H        1 UNL1     0.0385
     39 H         -4.981574   -0.636461   9.736396 H        1 UNL1     0.0385
     40 H         -3.729185   1.358803   8.830973 H        1 UNL1     0.0789
     41 H         -5.375754   1.930353   5.925881 H        1 UNL1     0.0623
     42 H         -7.499269   3.153795   5.689123 H        1 UNL1     0.0654
     43 H         -8.449803   2.32192   9.794467 H        1 UNL1     0.0654
     44 H         -6.378274   1.076915   10.0488 H        1 UNL1     0.0623
     45 H         -9.004756   4.4538   7.316791 H        1 UNL1     0.2921
     46 H         -5.462722   -3.923038   6.422314 H        1 UNL1     0.2922
     47 H         0.510728   0.356289   2.263896 H        1 UNL1     0.2126
     48 H         1.198697   -1.878853   -0.30258 H        1 UNL1     0.2101
     49 H         -2.01944   0.941562   -0.904134 H        1 UNL1     0.2100
     50 H         -2.688328   -3.327866   -1.166477 H        1 UNL1     0.2102
@<TRIPOS>BOND
     1     1     2    1
     2     1     6    1
     3     2     3    1
     4     3     4    1
     5     3    29    1
     6     3    33    1
     7     4     5    1
     8     5     6    1
     9     5     7    1
    10     5    35    1
    11     7     8    1
    12     8     9   ar
    13     8    13   ar
    14     9    10   ar
    15     9    36    1
    16    10    11   ar
    17    10    26    1
    18    11    12   ar
    19    11    14    1
    20    12    13   ar
    21    12    17    1
    22    13    37    1
    23    14    15    1
    24    14    25    2
    25    15    16    1
    26    15    38    1
    27    15    39    1
    28    16    17    1
    29    16    18    1
    30    16    40    1
    31    18    19   ar
    32    18    23   ar
    33    19    20   ar
    34    19    41    1
    35    20    21   ar
    36    20    42    1
    37    21    22   ar
    38    21    24    1
    39    22    23   ar
    40    22    43    1
    41    23    44    1
    42    24    45    1
    43    26    46    1
    44    27    47    1
    45    28    48    1
    46    29    49    1
    47    30    50    1
    48     1    31    1
    49     1    27    1
    50     2    32    1
    51     2    28    1
    52     4    34    1
    53     4    30    1
