@<TRIPOS>MOLECULE
*****
 50 53 0 0 0
SMALL
GASTEIGER

@<TRIPOS>ATOM
     1 C         -0.326516   -1.366727   1.672199 C.3        1 UNL1     0.1889
     2 C         -0.462171   -0.979453   0.175016 C.3        1 UNL1     0.1342
     3 C         -1.90488   -0.954248   -0.35264 C.3        1 UNL1     0.1174
     4 C         -2.789287   -2.028   0.286107 C.3        1 UNL1     0.1456
     5 C         -2.632256   -2.088363   1.816487 C.3        1 UNL1     0.2326
     6 O         -1.266222   -2.314838   2.156381 O.3        1 UNL1     -0.3076
     7 O         -3.204383   -0.956305   2.496513 O.3        1 UNL1     -0.4605
     8 C         -4.552739   -0.736574   2.279296 C.ar        1 UNL1     0.1310
     9 C         -5.188282   -0.766778   1.033313 C.ar        1 UNL1     0.0226
     10 C         -6.566185   -0.547612   0.918194 C.ar        1 UNL1     0.1343
     11 C         -7.346721   -0.316269   2.050044 C.ar        1 UNL1     0.1007
     12 C         -6.716873   -0.243056   3.295321 C.ar        1 UNL1     0.1389
     13 C         -5.330968   -0.460839   3.410511 C.ar        1 UNL1     0.0229
     14 C         -8.818874   -0.161628   1.995197 C.2        1 UNL1     0.1740
     15 C         -9.51972   -0.143783   3.321864 C.3        1 UNL1     0.0520
     16 C         -8.681861   0.669974   4.298465 C.3        1 UNL1     0.1322
     17 O         -7.370727   0.085301   4.460191 O.3        1 UNL1     -0.4828
     18 C         -8.674644   2.171507   4.001698 C.ar        1 UNL1     -0.0067
     19 C         -7.448713   2.8679   3.983189 C.ar        1 UNL1     -0.0516
     20 C         -7.410844   4.249786   3.762009 C.ar        1 UNL1     -0.0198
     21 C         -8.589892   4.946326   3.565785 C.ar        1 UNL1     0.1169
     22 C         -9.810004   4.283198   3.54511 C.ar        1 UNL1     -0.0198
     23 C         -9.846638   2.898428   3.747905 C.ar        1 UNL1     -0.0516
     24 O         -8.516761   6.297092   3.391189 O.3        1 UNL1     -0.5068
     25 O         -9.456673   -0.129142   0.946082 O.2        1 UNL1     -0.2917
     26 O         -7.12461   -0.589399   -0.325992 O.3        1 UNL1     -0.5058
     27 O         -0.217737   -0.248026   2.537914 O.3        1 UNL1     -0.3648
     28 O         0.265225   -1.940472   -0.612412 O.3        1 UNL1     -0.3841
     29 O         -2.461475   0.357486   -0.244522 O.3        1 UNL1     -0.3863
     30 O         -2.44416   -3.316653   -0.26702 O.3        1 UNL1     -0.3829
     31 H         0.634342   -1.882517   1.776081 H        1 UNL1     0.0937
     32 H         0.0   0.0   0.0 H        1 UNL1     0.0671
     33 H         -1.871774   -1.169269   -1.429854 H        1 UNL1     0.0649
     34 H         -3.840235   -1.843478   0.037388 H        1 UNL1     0.0683
     35 H         -3.186275   -2.990784   2.103852 H        1 UNL1     0.1085
     36 H         -4.646632   -0.996738   0.122349 H        1 UNL1     0.0691
     37 H         -4.864462   -0.397305   4.39124 H        1 UNL1     0.0691
     38 H         -9.620387   -1.181535   3.657222 H        1 UNL1     0.0385
     39 H         -10.524438   0.27253   3.191465 H        1 UNL1     0.0385
     40 H         -9.15027   0.571407   5.287099 H        1 UNL1     0.0789
     41 H         -6.510121   2.345465   4.143679 H        1 UNL1     0.0623
     42 H         -6.460204   4.777324   3.761907 H        1 UNL1     0.0654
     43 H         -10.738053   4.816587   3.377387 H        1 UNL1     0.0654
     44 H         -10.816345   2.411174   3.714754 H        1 UNL1     0.0623
     45 H         -8.14548   6.690873   4.197293 H        1 UNL1     0.2921
     46 H         -7.835407   -1.249698   -0.339565 H        1 UNL1     0.2922
     47 H         0.511586   0.322465   2.257758 H        1 UNL1     0.2126
     48 H         1.205415   -1.851682   -0.363633 H        1 UNL1     0.2101
     49 H         -2.0305   0.952166   -0.878881 H        1 UNL1     0.2100
     50 H         -2.686009   -3.31185   -1.216335 H        1 UNL1     0.2102
@<TRIPOS>BOND
     1     1     2    1
     2     1     6    1
     3     2     3    1
     4     3     4    1
     5     3    29    1
     6     3    33    1
     7     4     5    1
     8     5     6    1
     9     5     7    1
    10     5    35    1
    11     7     8    1
    12     8     9   ar
    13     8    13   ar
    14     9    10   ar
    15     9    36    1
    16    10    11   ar
    17    10    26    1
    18    11    12   ar
    19    11    14    1
    20    12    13   ar
    21    12    17    1
    22    13    37    1
    23    14    15    1
    24    14    25    2
    25    15    16    1
    26    15    38    1
    27    15    39    1
    28    16    17    1
    29    16    18    1
    30    16    40    1
    31    18    19   ar
    32    18    23   ar
    33    19    20   ar
    34    19    41    1
    35    20    21   ar
    36    20    42    1
    37    21    22   ar
    38    21    24    1
    39    22    23   ar
    40    22    43    1
    41    23    44    1
    42    24    45    1
    43    26    46    1
    44    27    47    1
    45    28    48    1
    46    29    49    1
    47    30    50    1
    48     1    31    1
    49     1    27    1
    50     2    32    1
    51     2    28    1
    52     4    34    1
    53     4    30    1
