@<TRIPOS>MOLECULE
*****
 50 53 0 0 0
SMALL
GASTEIGER

@<TRIPOS>ATOM
     1 C         -2.144384   0.405149   -0.090966 C.3        1 UNL1     0.1889
     2 C         -0.666507   0.871395   0.000869 C.3        1 UNL1     0.1342
     3 C         -0.345015   1.746955   1.221731 C.3        1 UNL1     0.1174
     4 C         -1.50586   2.662927   1.617396 C.3        1 UNL1     0.1456
     5 C         -2.855288   1.922681   1.655382 C.3        1 UNL1     0.2326
     6 O         -3.116325   1.32259   0.388646 O.3        1 UNL1     -0.3076
     7 O         -2.972119   0.99981   2.753554 O.3        1 UNL1     -0.4605
     8 C         -2.967505   -0.342738   2.420279 C.ar        1 UNL1     0.1310
     9 C         -2.657363   -1.392807   3.291179 C.ar        1 UNL1     0.0226
     10 C         -2.697592   -2.724794   2.862117 C.ar        1 UNL1     0.1343
     11 C         -3.072434   -3.040731   1.556927 C.ar        1 UNL1     0.1007
     12 C         -3.344587   -1.998585   0.666619 C.ar        1 UNL1     0.1389
     13 C         -3.301499   -0.659231   1.097555 C.ar        1 UNL1     0.0229
     14 C         -3.212872   -4.434113   1.074312 C.2        1 UNL1     0.1740
     15 C         -3.837543   -4.592009   -0.280828 C.3        1 UNL1     0.0520
     16 C         -3.296822   -3.497892   -1.19104 C.3        1 UNL1     0.1322
     17 O         -3.618207   -2.190222   -0.6678 O.3        1 UNL1     -0.4828
     18 C         -1.826363   -3.684635   -1.572619 C.ar        1 UNL1     -0.0067
     19 C         -1.252538   -2.845615   -2.549851 C.ar        1 UNL1     -0.0516
     20 C         0.07577   -3.020147   -2.956177 C.ar        1 UNL1     -0.0198
     21 C         0.836754   -4.032463   -2.399448 C.ar        1 UNL1     0.1169
     22 C         0.310072   -4.85349   -1.410833 C.ar        1 UNL1     -0.0198
     23 C         -1.012503   -4.667388   -0.99105 C.ar        1 UNL1     -0.0516
     24 O         2.114649   -4.196217   -2.847298 O.3        1 UNL1     -0.5068
     25 O         -2.920345   -5.41664   1.750738 O.2        1 UNL1     -0.2917
     26 O         -2.382838   -3.702079   3.760687 O.3        1 UNL1     -0.5058
     27 O         -2.358289   -0.900218   0.421916 O.3        1 UNL1     -0.3648
     28 O         -0.358311   1.64454   -1.173851 O.3        1 UNL1     -0.3841
     29 O         0.124833   0.94777   2.309241 O.3        1 UNL1     -0.3863
     30 O         -1.598109   3.747627   0.668393 O.3        1 UNL1     -0.3829
     31 H         -2.379115   0.317668   -1.157422 H        1 UNL1     0.0937
     32 H         0.0   0.0   0.0 H        1 UNL1     0.0671
     33 H         0.497656   2.399531   0.953832 H        1 UNL1     0.0649
     34 H         -1.311313   3.110797   2.598193 H        1 UNL1     0.0683
     35 H         -3.593042   2.724145   1.786735 H        1 UNL1     0.1085
     36 H         -2.412934   -1.21633   4.332923 H        1 UNL1     0.0691
     37 H         -3.516559   0.133819   0.384593 H        1 UNL1     0.0691
     38 H         -4.922224   -4.503255   -0.157879 H        1 UNL1     0.0385
     39 H         -3.617521   -5.594717   -0.662857 H        1 UNL1     0.0385
     40 H         -3.852467   -3.559434   -2.13655 H        1 UNL1     0.0789
     41 H         -1.831756   -2.049576   -3.008633 H        1 UNL1     0.0623
     42 H         0.503164   -2.374278   -3.719196 H        1 UNL1     0.0654
     43 H         0.901856   -5.639671   -0.957377 H        1 UNL1     0.0654
     44 H         -1.388103   -5.32025   -0.209039 H        1 UNL1     0.0623
     45 H         2.559975   -3.333692   -2.826038 H        1 UNL1     0.2921
     46 H         -2.033364   -4.474715   3.289185 H        1 UNL1     0.2922
     47 H         -2.802221   -1.450718   -0.238186 H        1 UNL1     0.2126
     48 H         0.587814   1.496853   -1.365606 H        1 UNL1     0.2101
     49 H         -0.486275   0.210117   2.46483 H        1 UNL1     0.2100
     50 H         -0.69498   3.93917   0.340702 H        1 UNL1     0.2102
@<TRIPOS>BOND
     1     1     2    1
     2     1     6    1
     3     2     3    1
     4     3     4    1
     5     3    29    1
     6     3    33    1
     7     4     5    1
     8     5     6    1
     9     5     7    1
    10     5    35    1
    11     7     8    1
    12     8     9   ar
    13     8    13   ar
    14     9    10   ar
    15     9    36    1
    16    10    11   ar
    17    10    26    1
    18    11    12   ar
    19    11    14    1
    20    12    13   ar
    21    12    17    1
    22    13    37    1
    23    14    15    1
    24    14    25    2
    25    15    16    1
    26    15    38    1
    27    15    39    1
    28    16    17    1
    29    16    18    1
    30    16    40    1
    31    18    19   ar
    32    18    23   ar
    33    19    20   ar
    34    19    41    1
    35    20    21   ar
    36    20    42    1
    37    21    22   ar
    38    21    24    1
    39    22    23   ar
    40    22    43    1
    41    23    44    1
    42    24    45    1
    43    26    46    1
    44    27    47    1
    45    28    48    1
    46    29    49    1
    47    30    50    1
    48     1    31    1
    49     1    27    1
    50     2    32    1
    51     2    28    1
    52     4    34    1
    53     4    30    1
