@<TRIPOS>MOLECULE
*****
 50 53 0 0 0
SMALL
GASTEIGER

@<TRIPOS>ATOM
     1 C         -2.164701   -0.240826   -0.163937 C.3        1 UNL1     0.1889
     2 C         -0.770841   0.058306   -0.778439 C.3        1 UNL1     0.1342
     3 C         -0.661933   1.41516   -1.490865 C.3        1 UNL1     0.1174
     4 C         -1.958386   1.820796   -2.196403 C.3        1 UNL1     0.1456
     5 C         -3.200346   1.623654   -1.308126 C.3        1 UNL1     0.2326
     6 O         -3.281234   0.266054   -0.880053 O.3        1 UNL1     -0.3076
     7 O         -3.28414   2.56514   -0.222814 O.3        1 UNL1     -0.4605
     8 C         -4.560608   2.927046   0.168571 C.ar        1 UNL1     0.1310
     9 C         -5.603594   3.279372   -0.694764 C.ar        1 UNL1     0.0226
     10 C         -6.869808   3.61506   -0.200886 C.ar        1 UNL1     0.1343
     11 C         -7.130652   3.583454   1.168349 C.ar        1 UNL1     0.1007
     12 C         -6.085889   3.273   2.042918 C.ar        1 UNL1     0.1389
     13 C         -4.812091   2.938074   1.546234 C.ar        1 UNL1     0.0229
     14 C         -8.47192   3.847277   1.738918 C.2        1 UNL1     0.1740
     15 C         -8.62447   3.552413   3.202247 C.3        1 UNL1     0.0520
     16 C         -7.362945   4.011626   3.920326 C.3        1 UNL1     0.1322
     17 O         -6.202358   3.316934   3.412872 O.3        1 UNL1     -0.4828
     18 C         -7.211993   5.533235   3.988473 C.ar        1 UNL1     -0.0067
     19 C         -5.979509   6.123183   3.640398 C.ar        1 UNL1     -0.0516
     20 C         -5.792987   7.507326   3.736941 C.ar        1 UNL1     -0.0198
     21 C         -6.826478   8.309764   4.186182 C.ar        1 UNL1     0.1169
     22 C         -8.06238   7.761983   4.504492 C.ar        1 UNL1     -0.0198
     23 C         -8.254991   6.379973   4.39045 C.ar        1 UNL1     -0.0516
     24 O         -6.595871   9.648987   4.303236 O.3        1 UNL1     -0.5068
     25 O         -9.434314   4.206549   1.065711 O.2        1 UNL1     -0.2917
     26 O         -7.843513   3.950515   -1.095846 O.3        1 UNL1     -0.5058
     27 O         -2.249091   0.060926   1.219758 O.3        1 UNL1     -0.3648
     28 O         -0.472594   -0.961027   -1.750402 O.3        1 UNL1     -0.3841
     29 O         -0.180793   2.420363   -0.596324 O.3        1 UNL1     -0.3863
     30 O         -2.113849   1.028695   -3.393941 O.3        1 UNL1     -0.3829
     31 H         -2.30123   -1.326706   -0.211936 H        1 UNL1     0.0937
     32 H         0.0   0.0   0.0 H        1 UNL1     0.0671
     33 H         0.10849   1.324326   -2.269272 H        1 UNL1     0.0649
     34 H         -1.901085   2.868866   -2.510517 H        1 UNL1     0.0683
     35 H         -4.042952   1.79383   -1.989986 H        1 UNL1     0.1085
     36 H         -5.480246   3.2687   -1.772165 H        1 UNL1     0.0691
     37 H         -4.015319   2.701231   2.248054 H        1 UNL1     0.0691
     38 H         -8.768659   2.471988   3.309104 H        1 UNL1     0.0385
     39 H         -9.521538   4.056054   3.57827 H        1 UNL1     0.0385
     40 H         -7.446183   3.680816   4.964431 H        1 UNL1     0.0789
     41 H         -5.149819   5.514007   3.293743 H        1 UNL1     0.0623
     42 H         -4.83415   7.948956   3.476929 H        1 UNL1     0.0654
     43 H         -8.883225   8.382918   4.842965 H        1 UNL1     0.0654
     44 H         -9.236666   5.987341   4.637429 H        1 UNL1     0.0623
     45 H         -5.894542   9.783074   4.961168 H        1 UNL1     0.2921
     46 H         -8.610238   3.368762   -0.972928 H        1 UNL1     0.2922
     47 H         -1.548402   -0.396212   1.705474 H        1 UNL1     0.2126
     48 H         -0.410142   -1.804062   -1.261398 H        1 UNL1     0.2101
     49 H         0.752093   2.255564   -0.385706 H        1 UNL1     0.2100
     50 H         -1.394274   1.27266   -4.012331 H        1 UNL1     0.2102
@<TRIPOS>BOND
     1     1     2    1
     2     1     6    1
     3     2     3    1
     4     3     4    1
     5     3    29    1
     6     3    33    1
     7     4     5    1
     8     5     6    1
     9     5     7    1
    10     5    35    1
    11     7     8    1
    12     8     9   ar
    13     8    13   ar
    14     9    10   ar
    15     9    36    1
    16    10    11   ar
    17    10    26    1
    18    11    12   ar
    19    11    14    1
    20    12    13   ar
    21    12    17    1
    22    13    37    1
    23    14    15    1
    24    14    25    2
    25    15    16    1
    26    15    38    1
    27    15    39    1
    28    16    17    1
    29    16    18    1
    30    16    40    1
    31    18    19   ar
    32    18    23   ar
    33    19    20   ar
    34    19    41    1
    35    20    21   ar
    36    20    42    1
    37    21    22   ar
    38    21    24    1
    39    22    23   ar
    40    22    43    1
    41    23    44    1
    42    24    45    1
    43    26    46    1
    44    27    47    1
    45    28    48    1
    46    29    49    1
    47    30    50    1
    48     1    31    1
    49     1    27    1
    50     2    32    1
    51     2    28    1
    52     4    34    1
    53     4    30    1
