@<TRIPOS>MOLECULE
*****
 50 53 0 0 0
SMALL
GASTEIGER

@<TRIPOS>ATOM
     1 C         -0.931842   -0.848232   -1.78409 C.3        1 UNL1     0.1889
     2 C         -0.969631   0.040219   -0.511625 C.3        1 UNL1     0.1342
     3 C         -2.079214   -0.318954   0.488518 C.3        1 UNL1     0.1174
     4 C         -3.360138   -0.803872   -0.195006 C.3        1 UNL1     0.1456
     5 C         -3.084016   -1.842766   -1.297196 C.3        1 UNL1     0.2326
     6 O         -2.189719   -1.298507   -2.265123 O.3        1 UNL1     -0.3076
     7 O         -2.657727   -3.119485   -0.7877 O.3        1 UNL1     -0.4605
     8 C         -2.029067   -3.101268   0.444365 C.ar        1 UNL1     0.1310
     9 C         -0.870819   -2.379599   0.752515 C.ar        1 UNL1     0.0226
     10 C         -0.318276   -2.412436   2.038407 C.ar        1 UNL1     0.1343
     11 C         -0.924679   -3.149582   3.054642 C.ar        1 UNL1     0.1007
     12 C         -2.058434   -3.907007   2.74855 C.ar        1 UNL1     0.1389
     13 C         -2.612311   -3.875921   1.45484 C.ar        1 UNL1     0.0229
     14 C         -0.431465   -3.152889   4.451382 C.2        1 UNL1     0.1740
     15 C         -1.328197   -3.816298   5.45503 C.3        1 UNL1     0.0520
     16 C         -1.907604   -5.075537   4.825298 C.3        1 UNL1     0.1322
     17 O         -2.672637   -4.752356   3.643203 O.3        1 UNL1     -0.4828
     18 C         -0.882177   -6.195096   4.630842 C.ar        1 UNL1     -0.0067
     19 C         -0.809061   -6.859259   3.389167 C.ar        1 UNL1     -0.0516
     20 C         0.084532   -7.918942   3.192888 C.ar        1 UNL1     -0.0198
     21 C         0.903284   -8.327827   4.23033 C.ar        1 UNL1     0.1169
     22 C         0.878043   -7.671752   5.454163 C.ar        1 UNL1     -0.0198
     23 C         -0.002386   -6.600067   5.644923 C.ar        1 UNL1     -0.0516
     24 O         1.733832   -9.387892   4.013875 O.3        1 UNL1     -0.5068
     25 O         0.599712   -2.587493   4.805621 O.2        1 UNL1     -0.2917
     26 O         0.813191   -1.687074   2.273388 O.3        1 UNL1     -0.5058
     27 O         0.008819   -1.907429   -1.706332 O.3        1 UNL1     -0.3648
     28 O         -1.182082   1.405828   -0.914962 O.3        1 UNL1     -0.3841
     29 O         -1.596819   -1.234853   1.473687 O.3        1 UNL1     -0.3863
     30 O         -4.040608   0.326369   -0.782548 O.3        1 UNL1     -0.3829
     31 H         -0.558648   -0.215269   -2.596593 H        1 UNL1     0.0937
     32 H         0.0   0.0   0.0 H        1 UNL1     0.0671
     33 H         -2.340297   0.593943   1.041848 H        1 UNL1     0.0649
     34 H         -4.039609   -1.236451   0.547689 H        1 UNL1     0.0683
     35 H         -4.054713   -1.96613   -1.793591 H        1 UNL1     0.1085
     36 H         -0.384034   -1.743326   0.021545 H        1 UNL1     0.0691
     37 H         -3.49476   -4.475434   1.241859 H        1 UNL1     0.0691
     38 H         -2.119147   -3.104376   5.714052 H        1 UNL1     0.0385
     39 H         -0.753275   -4.033633   6.361677 H        1 UNL1     0.0385
     40 H         -2.647813   -5.478579   5.52969 H        1 UNL1     0.0789
     41 H         -1.447561   -6.563217   2.561926 H        1 UNL1     0.0623
     42 H         0.123092   -8.430843   2.234513 H        1 UNL1     0.0654
     43 H         1.525533   -7.974013   6.268599 H        1 UNL1     0.0654
     44 H         0.011985   -6.103644   6.610429 H        1 UNL1     0.0623
     45 H         1.394795   -9.893719   3.257629 H        1 UNL1     0.2921
     46 H         0.766883   -1.293164   3.158883 H        1 UNL1     0.2922
     47 H         -0.399228   -2.689054   -1.308312 H        1 UNL1     0.2126
     48 H         -1.835973   1.782121   -0.294831 H        1 UNL1     0.2101
     49 H         -2.342441   -1.609676   1.969015 H        1 UNL1     0.2100
     50 H         -3.866341   0.315441   -1.74651 H        1 UNL1     0.2102
@<TRIPOS>BOND
     1     1     2    1
     2     1     6    1
     3     2     3    1
     4     3     4    1
     5     3    29    1
     6     3    33    1
     7     4     5    1
     8     5     6    1
     9     5     7    1
    10     5    35    1
    11     7     8    1
    12     8     9   ar
    13     8    13   ar
    14     9    10   ar
    15     9    36    1
    16    10    11   ar
    17    10    26    1
    18    11    12   ar
    19    11    14    1
    20    12    13   ar
    21    12    17    1
    22    13    37    1
    23    14    15    1
    24    14    25    2
    25    15    16    1
    26    15    38    1
    27    15    39    1
    28    16    17    1
    29    16    18    1
    30    16    40    1
    31    18    19   ar
    32    18    23   ar
    33    19    20   ar
    34    19    41    1
    35    20    21   ar
    36    20    42    1
    37    21    22   ar
    38    21    24    1
    39    22    23   ar
    40    22    43    1
    41    23    44    1
    42    24    45    1
    43    26    46    1
    44    27    47    1
    45    28    48    1
    46    29    49    1
    47    30    50    1
    48     1    31    1
    49     1    27    1
    50     2    32    1
    51     2    28    1
    52     4    34    1
    53     4    30    1
