@<TRIPOS>MOLECULE
*****
 50 53 0 0 0
SMALL
GASTEIGER

@<TRIPOS>ATOM
     1 C         -0.818929   -1.697281   1.104263 C.3        1 UNL1     0.1889
     2 C         -0.871274   -0.220278   0.629223 C.3        1 UNL1     0.1342
     3 C         -0.946196   0.815275   1.76169 C.3        1 UNL1     0.1174
     4 C         -1.760022   0.324603   2.961709 C.3        1 UNL1     0.1456
     5 C         -1.38591   -1.108384   3.382366 C.3        1 UNL1     0.2326
     6 O         -1.55465   -1.997976   2.280993 O.3        1 UNL1     -0.3076
     7 O         -0.086899   -1.205476   3.994301 O.3        1 UNL1     -0.4605
     8 C         0.871156   -0.324311   3.526108 C.ar        1 UNL1     0.1310
     9 C         2.204382   -0.277804   3.947588 C.ar        1 UNL1     0.0226
     10 C         3.105125   0.642911   3.399091 C.ar        1 UNL1     0.1343
     11 C         2.699983   1.524417   2.397768 C.ar        1 UNL1     0.1007
     12 C         1.361055   1.515155   1.997805 C.ar        1 UNL1     0.1389
     13 C         0.45492   0.591069   2.551353 C.ar        1 UNL1     0.0229
     14 C         3.629738   2.460493   1.724366 C.2        1 UNL1     0.1740
     15 C         3.078227   3.172172   0.523992 C.3        1 UNL1     0.0520
     16 C         1.639912   3.573693   0.820622 C.3        1 UNL1     0.1322
     17 O         0.829697   2.410363   1.098623 O.3        1 UNL1     -0.4828
     18 C         1.514051   4.696002   1.853727 C.ar        1 UNL1     -0.0067
     19 C         1.366972   6.027926   1.414909 C.ar        1 UNL1     -0.0516
     20 C         1.296771   7.082933   2.332512 C.ar        1 UNL1     -0.0198
     21 C         1.379671   6.820444   3.68826 C.ar        1 UNL1     0.1169
     22 C         1.491068   5.516189   4.152317 C.ar        1 UNL1     -0.0198
     23 C         1.542734   4.459307   3.235591 C.ar        1 UNL1     -0.0516
     24 O         1.345737   7.876754   4.550501 O.3        1 UNL1     -0.5068
     25 O         4.803567   2.603308   2.05635 O.2        1 UNL1     -0.2917
     26 O         4.391241   0.637365   3.854567 O.3        1 UNL1     -0.5058
     27 O         0.495932   -2.227322   1.158888 O.3        1 UNL1     -0.3648
     28 O         -2.042783   -0.045612   -0.189168 O.3        1 UNL1     -0.3841
     29 O         0.360796   1.264111   2.125628 O.3        1 UNL1     -0.3863
     30 O         -3.164552   0.358364   2.627278 O.3        1 UNL1     -0.3829
     31 H         -1.317642   -2.292316   0.331413 H        1 UNL1     0.0937
     32 H         0.0   0.0   0.0 H        1 UNL1     0.0671
     33 H         -1.461273   1.70363   1.37023 H        1 UNL1     0.0649
     34 H         -1.616702   1.00025   3.812216 H        1 UNL1     0.0683
     35 H         -2.147998   -1.373257   4.125967 H        1 UNL1     0.1085
     36 H         2.594774   -0.973547   4.682201 H        1 UNL1     0.0691
     37 H         -0.582361   0.605013   2.223715 H        1 UNL1     0.0691
     38 H         3.128331   2.480062   -0.323357 H        1 UNL1     0.0385
     39 H         3.711135   4.036912   0.297209 H        1 UNL1     0.0385
     40 H         1.220605   3.984842   -0.107633 H        1 UNL1     0.0789
     41 H         1.308719   6.261042   0.355705 H        1 UNL1     0.0623
     42 H         1.1953   8.106817   1.981261 H        1 UNL1     0.0654
     43 H         1.541675   5.298047   5.212394 H        1 UNL1     0.0654
     44 H         1.61929   3.452079   3.633682 H        1 UNL1     0.0623
     45 H         1.921583   7.674812   5.305708 H        1 UNL1     0.2921
     46 H         4.409458   0.94095   4.775934 H        1 UNL1     0.2922
     47 H         0.544508   -2.935228   1.816436 H        1 UNL1     0.2126
     48 H         -2.508789   0.741119   0.153797 H        1 UNL1     0.2101
     49 H         0.418591   1.365326   3.089064 H        1 UNL1     0.2100
     50 H         -3.350673   -0.396117   2.030764 H        1 UNL1     0.2102
@<TRIPOS>BOND
     1     1     2    1
     2     1     6    1
     3     2     3    1
     4     3     4    1
     5     3    29    1
     6     3    33    1
     7     4     5    1
     8     5     6    1
     9     5     7    1
    10     5    35    1
    11     7     8    1
    12     8     9   ar
    13     8    13   ar
    14     9    10   ar
    15     9    36    1
    16    10    11   ar
    17    10    26    1
    18    11    12   ar
    19    11    14    1
    20    12    13   ar
    21    12    17    1
    22    13    37    1
    23    14    15    1
    24    14    25    2
    25    15    16    1
    26    15    38    1
    27    15    39    1
    28    16    17    1
    29    16    18    1
    30    16    40    1
    31    18    19   ar
    32    18    23   ar
    33    19    20   ar
    34    19    41    1
    35    20    21   ar
    36    20    42    1
    37    21    22   ar
    38    21    24    1
    39    22    23   ar
    40    22    43    1
    41    23    44    1
    42    24    45    1
    43    26    46    1
    44    27    47    1
    45    28    48    1
    46    29    49    1
    47    30    50    1
    48     1    31    1
    49     1    27    1
    50     2    32    1
    51     2    28    1
    52     4    34    1
    53     4    30    1
