@<TRIPOS>MOLECULE
*****
 50 53 0 0 0
SMALL
GASTEIGER

@<TRIPOS>ATOM
     1 C         -0.337086   -1.332728   1.697355 C.3        1 UNL1     0.1889
     2 C         -0.464164   -0.975317   0.192015 C.3        1 UNL1     0.1342
     3 C         -1.903948   -0.959277   -0.343925 C.3        1 UNL1     0.1174
     4 C         -2.792969   -2.019204   0.311295 C.3        1 UNL1     0.1456
     5 C         -2.644348   -2.049127   1.843411 C.3        1 UNL1     0.2326
     6 O         -1.280429   -2.270074   2.195231 O.3        1 UNL1     -0.3076
     7 O         -3.218964   -0.903159   2.497547 O.3        1 UNL1     -0.4605
     8 C         -3.731656   -1.121598   3.763627 C.ar        1 UNL1     0.1310
     9 C         -4.550318   -2.1945   4.132375 C.ar        1 UNL1     0.0226
     10 C         -5.006254   -2.338097   5.448204 C.ar        1 UNL1     0.1343
     11 C         -4.634697   -1.424363   6.433534 C.ar        1 UNL1     0.1007
     12 C         -3.851201   -0.326323   6.068533 C.ar        1 UNL1     0.1389
     13 C         -3.395064   -0.18072   4.744838 C.ar        1 UNL1     0.0229
     14 C         -5.018562   -1.573826   7.85637 C.2        1 UNL1     0.1740
     15 C         -4.350277   -0.629335   8.811819 C.3        1 UNL1     0.0520
     16 C         -4.277652   0.744463   8.159623 C.3        1 UNL1     0.1322
     17 O         -3.516574   0.690133   6.932888 O.3        1 UNL1     -0.4828
     18 C         -5.635648   1.439185   8.033395 C.ar        1 UNL1     -0.0067
     19 C         -6.010162   2.008616   6.799013 C.ar        1 UNL1     -0.0516
     20 C         -7.224161   2.692322   6.662206 C.ar        1 UNL1     -0.0198
     21 C         -8.067124   2.819551   7.751726 C.ar        1 UNL1     0.1169
     22 C         -7.741361   2.240865   8.971496 C.ar        1 UNL1     -0.0198
     23 C         -6.53591   1.541242   9.103679 C.ar        1 UNL1     -0.0516
     24 O         -9.223448   3.524781   7.590585 O.3        1 UNL1     -0.5068
     25 O         -5.769468   -2.455656   8.265029 O.2        1 UNL1     -0.2917
     26 O         -5.802709   -3.406148   5.742334 O.3        1 UNL1     -0.5058
     27 O         -0.231833   -0.197057   2.541133 O.3        1 UNL1     -0.3648
     28 O         0.266487   -1.952575   -0.572067 O.3        1 UNL1     -0.3841
     29 O         -2.459722   0.354888   -0.265079 O.3        1 UNL1     -0.3863
     30 O         -2.446207   -3.318983   -0.214083 O.3        1 UNL1     -0.3829
     31 H         0.62264   -1.84726   1.816776 H        1 UNL1     0.0937
     32 H         0.0   0.0   0.0 H        1 UNL1     0.0671
     33 H         -1.865198   -1.195811   -1.416431 H        1 UNL1     0.0649
     34 H         -3.842348   -1.838681   0.053193 H        1 UNL1     0.0683
     35 H         -3.200888   -2.945094   2.145711 H        1 UNL1     0.1085
     36 H         -4.8284   -2.968728   3.425721 H        1 UNL1     0.0691
     37 H         -2.787243   0.683613   4.486041 H        1 UNL1     0.0691
     38 H         -3.348923   -1.021511   9.019217 H        1 UNL1     0.0385
     39 H         -4.912377   -0.612244   9.751781 H        1 UNL1     0.0385
     40 H         -3.683188   1.386849   8.823304 H        1 UNL1     0.0789
     41 H         -5.361769   1.930402   5.931188 H        1 UNL1     0.0623
     42 H         -7.496229   3.137285   5.708268 H        1 UNL1     0.0654
     43 H         -8.401115   2.321531   9.827141 H        1 UNL1     0.0654
     44 H         -6.318312   1.092813   10.068255 H        1 UNL1     0.0623
     45 H         -8.995346   4.434812   7.340525 H        1 UNL1     0.2921
     46 H         -5.40176   -3.920602   6.460657 H        1 UNL1     0.2922
     47 H         0.510753   0.357865   2.264568 H        1 UNL1     0.2126
     48 H         1.201734   -1.87713   -0.301228 H        1 UNL1     0.2101
     49 H         -2.018941   0.938432   -0.903031 H        1 UNL1     0.2100
     50 H         -2.677649   -3.330993   -1.165925 H        1 UNL1     0.2102
@<TRIPOS>BOND
     1     1     2    1
     2     1     6    1
     3     2     3    1
     4     3     4    1
     5     3    29    1
     6     3    33    1
     7     4     5    1
     8     5     6    1
     9     5     7    1
    10     5    35    1
    11     7     8    1
    12     8     9   ar
    13     8    13   ar
    14     9    10   ar
    15     9    36    1
    16    10    11   ar
    17    10    26    1
    18    11    12   ar
    19    11    14    1
    20    12    13   ar
    21    12    17    1
    22    13    37    1
    23    14    15    1
    24    14    25    2
    25    15    16    1
    26    15    38    1
    27    15    39    1
    28    16    17    1
    29    16    18    1
    30    16    40    1
    31    18    19   ar
    32    18    23   ar
    33    19    20   ar
    34    19    41    1
    35    20    21   ar
    36    20    42    1
    37    21    22   ar
    38    21    24    1
    39    22    23   ar
    40    22    43    1
    41    23    44    1
    42    24    45    1
    43    26    46    1
    44    27    47    1
    45    28    48    1
    46    29    49    1
    47    30    50    1
    48     1    31    1
    49     1    27    1
    50     2    32    1
    51     2    28    1
    52     4    34    1
    53     4    30    1
