@<TRIPOS>MOLECULE
*****
 50 53 0 0 0
SMALL
GASTEIGER

@<TRIPOS>ATOM
     1 C         1.161935   0.614343   1.744504 C.3        1 UNL1     0.1889
     2 C         -0.104865   -0.001657   1.092045 C.3        1 UNL1     0.1342
     3 C         -1.422624   0.691995   1.469965 C.3        1 UNL1     0.1174
     4 C         -1.428295   1.211243   2.909919 C.3        1 UNL1     0.1456
     5 C         -0.138949   1.97272   3.267832 C.3        1 UNL1     0.2326
     6 O         0.995157   1.135255   3.054935 O.3        1 UNL1     -0.3076
     7 O         -0.028617   3.251176   2.616143 O.3        1 UNL1     -0.4605
     8 C         1.197986   3.881826   2.722216 C.ar        1 UNL1     0.1310
     9 C         2.428066   3.329543   2.349138 C.ar        1 UNL1     0.0226
     10 C         3.617274   4.056602   2.479801 C.ar        1 UNL1     0.1343
     11 C         3.602353   5.363597   2.964962 C.ar        1 UNL1     0.1007
     12 C         2.385232   5.911159   3.379179 C.ar        1 UNL1     0.1389
     13 C         1.18997   5.178947   3.250168 C.ar        1 UNL1     0.0229
     14 C         4.817624   6.206698   3.045287 C.2        1 UNL1     0.1740
     15 C         4.584808   7.65138   3.377311 C.3        1 UNL1     0.0520
     16 C         3.502824   7.731956   4.445381 C.3        1 UNL1     0.1322
     17 O         2.269699   7.147438   3.971237 O.3        1 UNL1     -0.4828
     18 C         3.954888   7.231543   5.819407 C.ar        1 UNL1     -0.0067
     19 C         3.613781   7.969138   6.971715 C.ar        1 UNL1     -0.0516
     20 C         4.051293   7.565219   8.238757 C.ar        1 UNL1     -0.0198
     21 C         4.83484   6.432182   8.365685 C.ar        1 UNL1     0.1169
     22 C         5.159311   5.66639   7.253427 C.ar        1 UNL1     -0.0198
     23 C         4.706504   6.059835   5.988428 C.ar        1 UNL1     -0.0516
     24 O         5.273909   6.09081   9.611111 O.3        1 UNL1     -0.5068
     25 O         5.944694   5.794948   2.783257 O.2        1 UNL1     -0.2917
     26 O         4.783677   3.459955   2.098876 O.3        1 UNL1     -0.5058
     27 O         1.84512   1.527729   0.900839 O.3        1 UNL1     -0.3648
     28 O         -0.209634   -1.376024   1.507793 O.3        1 UNL1     -0.3841
     29 O         -1.75547   1.702523   0.515932 O.3        1 UNL1     -0.3863
     30 O         -1.574892   0.095621   3.81523 O.3        1 UNL1     -0.3829
     31 H         1.872905   -0.207304   1.884138 H        1 UNL1     0.0937
     32 H         0.0   0.0   -0.0 H        1 UNL1     0.0671
     33 H         -2.226756   -0.053582   1.397818 H        1 UNL1     0.0649
     34 H         -2.291421   1.867442   3.067452 H        1 UNL1     0.0683
     35 H         -0.2183   2.133084   4.35036 H        1 UNL1     0.1085
     36 H         2.499695   2.33913   1.913166 H        1 UNL1     0.0691
     37 H         0.255667   5.627442   3.58096 H        1 UNL1     0.0691
     38 H         4.270244   8.156043   2.457587 H        1 UNL1     0.0385
     39 H         5.52762   8.100041   3.708352 H        1 UNL1     0.0385
     40 H         3.266105   8.7952   4.586789 H        1 UNL1     0.0789
     41 H         3.007479   8.867225   6.897621 H        1 UNL1     0.0623
     42 H         3.791562   8.149059   9.118349 H        1 UNL1     0.0654
     43 H         5.759758   4.769006   7.343291 H        1 UNL1     0.0654
     44 H         4.970022   5.43204   5.142687 H        1 UNL1     0.0623
     45 H         4.575894   6.303911   10.251486 H        1 UNL1     0.2921
     46 H         5.490761   3.709247   2.714747 H        1 UNL1     0.2922
     47 H         2.80065   1.455755   1.033658 H        1 UNL1     0.2126
     48 H         -1.160183   -1.556321   1.640767 H        1 UNL1     0.2101
     49 H         -2.416804   2.305578   0.891106 H        1 UNL1     0.2100
     50 H         -0.952611   -0.606091   3.532247 H        1 UNL1     0.2102
@<TRIPOS>BOND
     1     1     2    1
     2     1     6    1
     3     2     3    1
     4     3     4    1
     5     3    29    1
     6     3    33    1
     7     4     5    1
     8     5     6    1
     9     5     7    1
    10     5    35    1
    11     7     8    1
    12     8     9   ar
    13     8    13   ar
    14     9    10   ar
    15     9    36    1
    16    10    11   ar
    17    10    26    1
    18    11    12   ar
    19    11    14    1
    20    12    13   ar
    21    12    17    1
    22    13    37    1
    23    14    15    1
    24    14    25    2
    25    15    16    1
    26    15    38    1
    27    15    39    1
    28    16    17    1
    29    16    18    1
    30    16    40    1
    31    18    19   ar
    32    18    23   ar
    33    19    20   ar
    34    19    41    1
    35    20    21   ar
    36    20    42    1
    37    21    22   ar
    38    21    24    1
    39    22    23   ar
    40    22    43    1
    41    23    44    1
    42    24    45    1
    43    26    46    1
    44    27    47    1
    45    28    48    1
    46    29    49    1
    47    30    50    1
    48     1    31    1
    49     1    27    1
    50     2    32    1
    51     2    28    1
    52     4    34    1
    53     4    30    1
