@<TRIPOS>MOLECULE
*****
 50 53 0 0 0
SMALL
GASTEIGER

@<TRIPOS>ATOM
     1 C         -2.136322   -0.454076   -0.027377 C.3        1 UNL1     0.1889
     2 C         -0.834623   -0.041075   0.71083 C.3        1 UNL1     0.1342
     3 C         -0.44749   -0.951695   1.886145 C.3        1 UNL1     0.1174
     4 C         -1.663105   -1.498036   2.639079 C.3        1 UNL1     0.1456
     5 C         -2.747463   -2.043901   1.692209 C.3        1 UNL1     0.2326
     6 O         -3.154359   -1.025694   0.780859 O.3        1 UNL1     -0.3076
     7 O         -2.373766   -3.271019   1.039634 O.3        1 UNL1     -0.4605
     8 C         -3.405927   -4.149788   0.764068 C.ar        1 UNL1     0.1310
     9 C         -4.231246   -4.755095   1.717876 C.ar        1 UNL1     0.0226
     10 C         -5.263862   -5.620233   1.336898 C.ar        1 UNL1     0.1343
     11 C         -5.511589   -5.882664   -0.009802 C.ar        1 UNL1     0.1007
     12 C         -4.668231   -5.31639   -0.969418 C.ar        1 UNL1     0.1389
     13 C         -3.628347   -4.448619   -0.58595 C.ar        1 UNL1     0.0229
     14 C         -6.64111   -6.72204   -0.472173 C.2        1 UNL1     0.1740
     15 C         -6.891715   -6.715656   -1.9516 C.3        1 UNL1     0.0520
     16 C         -5.548583   -6.745106   -2.667902 C.3        1 UNL1     0.1322
     17 O         -4.753542   -5.591826   -2.314455 O.3        1 UNL1     -0.4828
     18 C         -4.814747   -8.082821   -2.546549 C.ar        1 UNL1     -0.0067
     19 C         -3.655434   -8.309103   -3.316616 C.ar        1 UNL1     -0.0516
     20 C         -2.987456   -9.538375   -3.265057 C.ar        1 UNL1     -0.0198
     21 C         -3.471879   -10.549622   -2.454785 C.ar        1 UNL1     0.1169
     22 C         -4.591949   -10.345578   -1.659394 C.ar        1 UNL1     -0.0198
     23 C         -5.249459   -9.110128   -1.696807 C.ar        1 UNL1     -0.0516
     24 O         -2.816795   -11.745969   -2.459186 O.3        1 UNL1     -0.5068
     25 O         -7.388877   -7.328857   0.290127 O.2        1 UNL1     -0.2917
     26 O         -6.032114   -6.178929   2.316303 O.3        1 UNL1     -0.5058
     27 O         -1.903407   -1.222053   -1.197313 O.3        1 UNL1     -0.3648
     28 O         -1.010948   1.287007   1.237911 O.3        1 UNL1     -0.3841
     29 O         0.446262   -1.980917   1.457142 O.3        1 UNL1     -0.3863
     30 O         -2.236286   -0.443355   3.442074 O.3        1 UNL1     -0.3829
     31 H         -2.592499   0.470368   -0.398031 H        1 UNL1     0.0937
     32 H         0.0   0.0   0.0 H        1 UNL1     0.0671
     33 H         0.125664   -0.347899   2.603533 H        1 UNL1     0.0649
     34 H         -1.351183   -2.291423   3.327296 H        1 UNL1     0.0683
     35 H         -3.601131   -2.240282   2.35294 H        1 UNL1     0.1085
     36 H         -4.125596   -4.547939   2.777142 H        1 UNL1     0.0691
     37 H         -2.985085   -4.021524   -1.352303 H        1 UNL1     0.0691
     38 H         -7.446304   -5.801706   -2.189615 H        1 UNL1     0.0385
     39 H         -7.519313   -7.574461   -2.213045 H        1 UNL1     0.0385
     40 H         -5.750882   -6.620883   -3.740359 H        1 UNL1     0.0789
     41 H         -3.260399   -7.534483   -3.967432 H        1 UNL1     0.0623
     42 H         -2.10135   -9.704691   -3.872648 H        1 UNL1     0.0654
     43 H         -4.971079   -11.125551   -1.009923 H        1 UNL1     0.0654
     44 H         -6.115227   -8.981976   -1.054259 H        1 UNL1     0.0623
     45 H         -2.288134   -11.803163   -3.271568 H        1 UNL1     0.2921
     46 H         -6.967319   -6.126783   2.063155 H        1 UNL1     0.2922
     47 H         -1.650536   -0.645242   -1.931618 H        1 UNL1     0.2126
     48 H         -0.157796   1.545091   1.636981 H        1 UNL1     0.2101
     49 H         -0.043697   -2.660349   0.967137 H        1 UNL1     0.2100
     50 H         -1.601863   -0.230439   4.157537 H        1 UNL1     0.2102
@<TRIPOS>BOND
     1     1     2    1
     2     1     6    1
     3     2     3    1
     4     3     4    1
     5     3    29    1
     6     3    33    1
     7     4     5    1
     8     5     6    1
     9     5     7    1
    10     5    35    1
    11     7     8    1
    12     8     9   ar
    13     8    13   ar
    14     9    10   ar
    15     9    36    1
    16    10    11   ar
    17    10    26    1
    18    11    12   ar
    19    11    14    1
    20    12    13   ar
    21    12    17    1
    22    13    37    1
    23    14    15    1
    24    14    25    2
    25    15    16    1
    26    15    38    1
    27    15    39    1
    28    16    17    1
    29    16    18    1
    30    16    40    1
    31    18    19   ar
    32    18    23   ar
    33    19    20   ar
    34    19    41    1
    35    20    21   ar
    36    20    42    1
    37    21    22   ar
    38    21    24    1
    39    22    23   ar
    40    22    43    1
    41    23    44    1
    42    24    45    1
    43    26    46    1
    44    27    47    1
    45    28    48    1
    46    29    49    1
    47    30    50    1
    48     1    31    1
    49     1    27    1
    50     2    32    1
    51     2    28    1
    52     4    34    1
    53     4    30    1
