@<TRIPOS>MOLECULE
*****
 50 53 0 0 0
SMALL
GASTEIGER

@<TRIPOS>ATOM
     1 C         0.303856   -1.893935   1.044743 C.3        1 UNL1     0.1889
     2 C         -0.343646   -1.038963   -0.077623 C.3        1 UNL1     0.1342
     3 C         -1.879816   -1.058806   -0.093448 C.3        1 UNL1     0.1174
     4 C         -2.46025   -2.411478   0.326664 C.3        1 UNL1     0.1456
     5 C         -1.791943   -2.972155   1.595273 C.3        1 UNL1     0.2326
     6 O         -0.385014   -3.085555   1.393876 O.3        1 UNL1     -0.3076
     7 O         -2.135912   -2.249596   2.791481 O.3        1 UNL1     -0.4605
     8 C         -2.185945   -2.994186   3.956217 C.ar        1 UNL1     0.1310
     9 C         -2.805961   -4.24061   4.095178 C.ar        1 UNL1     0.0226
     10 C         -2.787612   -4.926008   5.315749 C.ar        1 UNL1     0.1343
     11 C         -2.127655   -4.391933   6.42167 C.ar        1 UNL1     0.1007
     12 C         -1.540077   -3.129286   6.306525 C.ar        1 UNL1     0.1389
     13 C         -1.56094   -2.439129   5.079871 C.ar        1 UNL1     0.0229
     14 C         -2.005239   -5.110801   7.71101 C.2        1 UNL1     0.1740
     15 C         -1.076871   -4.491501   8.714079 C.3        1 UNL1     0.0520
     16 C         -1.261836   -2.980844   8.673304 C.3        1 UNL1     0.1322
     17 O         -0.958176   -2.462326   7.359531 O.3        1 UNL1     -0.4828
     18 C         -2.599199   -2.508076   9.248346 C.ar        1 UNL1     -0.0067
     19 C         -2.616234   -1.790093   10.46178 C.ar        1 UNL1     -0.0516
     20 C         -3.825218   -1.384262   11.03938 C.ar        1 UNL1     -0.0198
     21 C         -5.021569   -1.695943   10.418553 C.ar        1 UNL1     0.1169
     22 C         -5.035714   -2.372658   9.205831 C.ar        1 UNL1     -0.0198
     23 C         -3.826045   -2.762501   8.618653 C.ar        1 UNL1     -0.0516
     24 O         -6.180519   -1.317235   11.029958 O.3        1 UNL1     -0.5068
     25 O         -2.552655   -6.186111   7.940203 O.2        1 UNL1     -0.2917
     26 O         -3.412022   -6.137149   5.385282 O.3        1 UNL1     -0.5058
     27 O         0.663481   -1.141449   2.192446 O.3        1 UNL1     -0.3648
     28 O         0.104395   -1.541846   -1.350051 O.3        1 UNL1     -0.3841
     29 O         -2.408821   0.030244   0.665668 O.3        1 UNL1     -0.3863
     30 O         -2.281656   -3.358316   -0.749111 O.3        1 UNL1     -0.3829
     31 H         1.259153   -2.25673   0.649945 H        1 UNL1     0.0937
     32 H         0.0   0.0   0.0 H        1 UNL1     0.0671
     33 H         -2.206866   -0.879912   -1.127254 H        1 UNL1     0.0649
     34 H         -3.538661   -2.319138   0.496675 H        1 UNL1     0.0683
     35 H         -2.186353   -3.993086   1.67286 H        1 UNL1     0.1085
     36 H         -3.287312   -4.734509   3.258228 H        1 UNL1     0.0691
     37 H         -1.097191   -1.457074   5.016633 H        1 UNL1     0.0691
     38 H         -0.055069   -4.771919   8.436926 H        1 UNL1     0.0385
     39 H         -1.28913   -4.908043   9.704643 H        1 UNL1     0.0385
     40 H         -0.494057   -2.542998   9.325475 H        1 UNL1     0.0789
     41 H         -1.691098   -1.541081   10.973413 H        1 UNL1     0.0623
     42 H         -3.825744   -0.841529   11.981427 H        1 UNL1     0.0654
     43 H         -5.966228   -2.608709   8.703503 H        1 UNL1     0.0654
     44 H         -3.873969   -3.280293   7.665532 H        1 UNL1     0.0623
     45 H         -6.501902   -0.506661   10.602875 H        1 UNL1     0.2921
     46 H         -2.891363   -6.73811   5.941315 H        1 UNL1     0.2922
     47 H         1.19888   -0.377133   1.937441 H        1 UNL1     0.2126
     48 H         1.040104   -1.2776   -1.441463 H        1 UNL1     0.2101
     49 H         -2.652637   -0.274495   1.554195 H        1 UNL1     0.2100
     50 H         -2.848347   -3.075796   -1.496611 H        1 UNL1     0.2102
@<TRIPOS>BOND
     1     1     2    1
     2     1     6    1
     3     2     3    1
     4     3     4    1
     5     3    29    1
     6     3    33    1
     7     4     5    1
     8     5     6    1
     9     5     7    1
    10     5    35    1
    11     7     8    1
    12     8     9   ar
    13     8    13   ar
    14     9    10   ar
    15     9    36    1
    16    10    11   ar
    17    10    26    1
    18    11    12   ar
    19    11    14    1
    20    12    13   ar
    21    12    17    1
    22    13    37    1
    23    14    15    1
    24    14    25    2
    25    15    16    1
    26    15    38    1
    27    15    39    1
    28    16    17    1
    29    16    18    1
    30    16    40    1
    31    18    19   ar
    32    18    23   ar
    33    19    20   ar
    34    19    41    1
    35    20    21   ar
    36    20    42    1
    37    21    22   ar
    38    21    24    1
    39    22    23   ar
    40    22    43    1
    41    23    44    1
    42    24    45    1
    43    26    46    1
    44    27    47    1
    45    28    48    1
    46    29    49    1
    47    30    50    1
    48     1    31    1
    49     1    27    1
    50     2    32    1
    51     2    28    1
    52     4    34    1
    53     4    30    1
