@<TRIPOS>MOLECULE
*****
 50 53 0 0 0
SMALL
GASTEIGER

@<TRIPOS>ATOM
     1 C         0.531676   0.613236   -2.027823 C.3        1 UNL1     0.1889
     2 C         -0.226901   0.822476   -0.689646 C.3        1 UNL1     0.1342
     3 C         -1.751306   0.952462   -0.830215 C.3        1 UNL1     0.1174
     4 C         -2.169686   1.670942   -2.115463 C.3        1 UNL1     0.1456
     5 C         -1.420686   1.147783   -3.354684 C.3        1 UNL1     0.2326
     6 O         -0.013669   1.272817   -3.160937 O.3        1 UNL1     -0.3076
     7 O         -1.821933   -0.17654   -3.750275 O.3        1 UNL1     -0.4605
     8 C         -2.056679   -1.071414   -2.721867 C.ar        1 UNL1     0.1310
     9 C         -1.121629   -1.973961   -2.203801 C.ar        1 UNL1     0.0226
     10 C         -1.451258   -2.830513   -1.146652 C.ar        1 UNL1     0.1343
     11 C         -2.717925   -2.788605   -0.565583 C.ar        1 UNL1     0.1007
     12 C         -3.67291   -1.920352   -1.101235 C.ar        1 UNL1     0.1389
     13 C         -3.342036   -1.061059   -2.165928 C.ar        1 UNL1     0.0229
     14 C         -3.093407   -3.611438   0.607495 C.2        1 UNL1     0.1740
     15 C         -4.413711   -3.278746   1.2381 C.3        1 UNL1     0.0520
     16 C         -5.417208   -2.988724   0.130472 C.3        1 UNL1     0.1322
     17 O         -4.980854   -1.873606   -0.677722 O.3        1 UNL1     -0.4828
     18 C         -5.829044   -4.227995   -0.667853 C.ar        1 UNL1     -0.0067
     19 C         -5.228065   -4.477186   -1.91883 C.ar        1 UNL1     -0.0516
     20 C         -5.615672   -5.575277   -2.695953 C.ar        1 UNL1     -0.0198
     21 C         -6.606054   -6.425496   -2.237588 C.ar        1 UNL1     0.1169
     22 C         -7.192946   -6.225389   -0.994868 C.ar        1 UNL1     -0.0198
     23 C         -6.792498   -5.137894   -0.209341 C.ar        1 UNL1     -0.0516
     24 O         -6.983981   -7.46267   -3.038738 O.3        1 UNL1     -0.5068
     25 O         -2.356597   -4.46113   1.101073 O.2        1 UNL1     -0.2917
     26 O         -0.494058   -3.687966   -0.688256 O.3        1 UNL1     -0.5058
     27 O         0.825323   -0.746906   -2.30454 O.3        1 UNL1     -0.3648
     28 O         0.251896   2.03499   -0.078688 O.3        1 UNL1     -0.3841
     29 O         -2.385016   -0.319004   -0.675559 O.3        1 UNL1     -0.3863
     30 O         -1.905604   3.083895   -1.975771 O.3        1 UNL1     -0.3829
     31 H         1.51436   1.082072   -1.906977 H        1 UNL1     0.0937
     32 H         0.0   0.0   0.0 H        1 UNL1     0.0671
     33 H         -2.114488   1.563357   0.008013 H        1 UNL1     0.0649
     34 H         -3.248493   1.560371   -2.271509 H        1 UNL1     0.0683
     35 H         -1.697297   1.853155   -4.148293 H        1 UNL1     0.1085
     36 H         -0.103451   -2.01598   -2.574839 H        1 UNL1     0.0691
     37 H         -4.103861   -0.395228   -2.56566 H        1 UNL1     0.0691
     38 H         -4.264386   -2.40077   1.875585 H        1 UNL1     0.0385
     39 H         -4.728369   -4.113446   1.873745 H        1 UNL1     0.0385
     40 H         -6.338281   -2.634428   0.612778 H        1 UNL1     0.0789
     41 H         -4.454821   -3.819437   -2.304977 H        1 UNL1     0.0623
     42 H         -5.15313   -5.749981   -3.664222 H        1 UNL1     0.0654
     43 H         -7.958811   -6.893635   -0.619621 H        1 UNL1     0.0654
     44 H         -7.264767   -5.017905   0.760922 H        1 UNL1     0.0623
     45 H         -7.884139   -7.290388   -3.359288 H        1 UNL1     0.2921
     46 H         0.129529   -3.889179   -1.403842 H        1 UNL1     0.2922
     47 H         0.410196   -1.016677   -3.135656 H        1 UNL1     0.2126
     48 H         1.137918   2.205491   -0.452354 H        1 UNL1     0.2101
     49 H         -2.58276   -0.477407   0.261244 H        1 UNL1     0.2100
     50 H         -1.712004   3.262599   -1.032216 H        1 UNL1     0.2102
@<TRIPOS>BOND
     1     1     2    1
     2     1     6    1
     3     2     3    1
     4     3     4    1
     5     3    29    1
     6     3    33    1
     7     4     5    1
     8     5     6    1
     9     5     7    1
    10     5    35    1
    11     7     8    1
    12     8     9   ar
    13     8    13   ar
    14     9    10   ar
    15     9    36    1
    16    10    11   ar
    17    10    26    1
    18    11    12   ar
    19    11    14    1
    20    12    13   ar
    21    12    17    1
    22    13    37    1
    23    14    15    1
    24    14    25    2
    25    15    16    1
    26    15    38    1
    27    15    39    1
    28    16    17    1
    29    16    18    1
    30    16    40    1
    31    18    19   ar
    32    18    23   ar
    33    19    20   ar
    34    19    41    1
    35    20    21   ar
    36    20    42    1
    37    21    22   ar
    38    21    24    1
    39    22    23   ar
    40    22    43    1
    41    23    44    1
    42    24    45    1
    43    26    46    1
    44    27    47    1
    45    28    48    1
    46    29    49    1
    47    30    50    1
    48     1    31    1
    49     1    27    1
    50     2    32    1
    51     2    28    1
    52     4    34    1
    53     4    30    1
