@<TRIPOS>MOLECULE
*****
 50 53 0 0 0
SMALL
GASTEIGER

@<TRIPOS>ATOM
     1 C         1.018839   -1.766855   -0.781661 C.3        1 UNL1     0.1889
     2 C         -0.23361   -0.860832   -0.638715 C.3        1 UNL1     0.1342
     3 C         -1.479167   -1.571006   -0.086713 C.3        1 UNL1     0.1174
     4 C         -1.585182   -3.026966   -0.547209 C.3        1 UNL1     0.1456
     5 C         -0.255442   -3.789619   -0.403972 C.3        1 UNL1     0.2326
     6 O         0.770086   -3.119838   -1.133734 O.3        1 UNL1     -0.3076
     7 O         0.106412   -4.059201   0.962669 O.3        1 UNL1     -0.4605
     8 C         0.812114   -5.22826   1.18361 C.ar        1 UNL1     0.1310
     9 C         0.498379   -6.479041   0.641006 C.ar        1 UNL1     0.0226
     10 C         1.286993   -7.603695   0.911459 C.ar        1 UNL1     0.1343
     11 C         2.423246   -7.499796   1.712692 C.ar        1 UNL1     0.1007
     12 C         2.723496   -6.264732   2.293424 C.ar        1 UNL1     0.1389
     13 C         1.928891   -5.134618   2.023467 C.ar        1 UNL1     0.0229
     14 C         3.338817   -8.636987   1.963054 C.2        1 UNL1     0.1740
     15 C         4.623682   -8.295112   2.658606 C.3        1 UNL1     0.0520
     16 C         4.324933   -7.274649   3.748267 C.3        1 UNL1     0.1322
     17 O         3.754758   -6.073415   3.183459 O.3        1 UNL1     -0.4828
     18 C         3.546442   -7.849511   4.934104 C.ar        1 UNL1     -0.0067
     19 C         2.419366   -7.157775   5.423405 C.ar        1 UNL1     -0.0516
     20 C         1.713234   -7.630949   6.535811 C.ar        1 UNL1     -0.0198
     21 C         2.127577   -8.788083   7.170782 C.ar        1 UNL1     0.1169
     22 C         3.213587   -9.509414   6.692137 C.ar        1 UNL1     -0.0198
     23 C         3.908771   -9.046408   5.56857 C.ar        1 UNL1     -0.0516
     24 O         1.438   -9.197833   8.273954 O.3        1 UNL1     -0.5068
     25 O         3.122261   -9.779222   1.566965 O.2        1 UNL1     -0.2917
     26 O         0.926011   -8.794693   0.352173 O.3        1 UNL1     -0.5058
     27 O         1.916736   -1.666906   0.312221 O.3        1 UNL1     -0.3648
     28 O         -0.575025   -0.346097   -1.939172 O.3        1 UNL1     -0.3841
     29 O         -1.553834   -1.432955   1.333674 O.3        1 UNL1     -0.3863
     30 O         -1.990581   -3.057203   -1.933003 O.3        1 UNL1     -0.3829
     31 H         1.588414   -1.380995   -1.634172 H        1 UNL1     0.0937
     32 H         0.0   0.0   0.0 H        1 UNL1     0.0671
     33 H         -2.363695   -1.048879   -0.4775 H        1 UNL1     0.0649
     34 H         -2.36255   -3.544703   0.025547 H        1 UNL1     0.0683
     35 H         -0.440571   -4.742475   -0.915511 H        1 UNL1     0.1085
     36 H         -0.339478   -6.613747   -0.034249 H        1 UNL1     0.0691
     37 H         2.183304   -4.184761   2.488804 H        1 UNL1     0.0691
     38 H         5.306995   -7.883169   1.908331 H        1 UNL1     0.0385
     39 H         5.069159   -9.211541   3.060462 H        1 UNL1     0.0385
     40 H         5.289572   -6.952016   4.162875 H        1 UNL1     0.0789
     41 H         2.079504   -6.242191   4.948168 H        1 UNL1     0.0623
     42 H         0.852882   -7.08216   6.910828 H        1 UNL1     0.0654
     43 H         3.537474   -10.424881   7.172688 H        1 UNL1     0.0654
     44 H         4.74599   -9.640756   5.215497 H        1 UNL1     0.0623
     45 H         1.520767   -8.514472   8.958705 H        1 UNL1     0.2921
     46 H         1.665794   -9.144832   -0.168918 H        1 UNL1     0.2922
     47 H         2.168488   -0.74389   0.455478 H        1 UNL1     0.2126
     48 H         0.171425   0.216483   -2.222101 H        1 UNL1     0.2101
     49 H         -1.757264   -0.512827   1.565571 H        1 UNL1     0.2100
     50 H         -2.901167   -2.700199   -1.988622 H        1 UNL1     0.2102
@<TRIPOS>BOND
     1     1     2    1
     2     1     6    1
     3     2     3    1
     4     3     4    1
     5     3    29    1
     6     3    33    1
     7     4     5    1
     8     5     6    1
     9     5     7    1
    10     5    35    1
    11     7     8    1
    12     8     9   ar
    13     8    13   ar
    14     9    10   ar
    15     9    36    1
    16    10    11   ar
    17    10    26    1
    18    11    12   ar
    19    11    14    1
    20    12    13   ar
    21    12    17    1
    22    13    37    1
    23    14    15    1
    24    14    25    2
    25    15    16    1
    26    15    38    1
    27    15    39    1
    28    16    17    1
    29    16    18    1
    30    16    40    1
    31    18    19   ar
    32    18    23   ar
    33    19    20   ar
    34    19    41    1
    35    20    21   ar
    36    20    42    1
    37    21    22   ar
    38    21    24    1
    39    22    23   ar
    40    22    43    1
    41    23    44    1
    42    24    45    1
    43    26    46    1
    44    27    47    1
    45    28    48    1
    46    29    49    1
    47    30    50    1
    48     1    31    1
    49     1    27    1
    50     2    32    1
    51     2    28    1
    52     4    34    1
    53     4    30    1
