@<TRIPOS>MOLECULE
*****
 50 53 0 0 0
SMALL
GASTEIGER

@<TRIPOS>ATOM
     1 C         -1.537186   -0.568255   1.443936 C.3        1 UNL1     0.1889
     2 C         -0.666567   0.492809   0.718602 C.3        1 UNL1     0.1342
     3 C         0.170928   1.381297   1.651156 C.3        1 UNL1     0.1174
     4 C         -0.536448   1.685885   2.974017 C.3        1 UNL1     0.1456
     5 C         -1.155019   0.430304   3.615305 C.3        1 UNL1     0.2326
     6 O         -2.064849   -0.182624   2.704593 O.3        1 UNL1     -0.3076
     7 O         -0.177347   -0.48574   4.140987 O.3        1 UNL1     -0.4605
     8 C         0.724774   0.044005   5.046015 C.ar        1 UNL1     0.1310
     9 C         2.087583   -0.266223   5.107752 C.ar        1 UNL1     0.0226
     10 C         2.925306   0.338053   6.052724 C.ar        1 UNL1     0.1343
     11 C         2.424742   1.285924   6.94425 C.ar        1 UNL1     0.1007
     12 C         1.057472   1.573554   6.919284 C.ar        1 UNL1     0.1389
     13 C         0.214848   0.96386   5.970764 C.ar        1 UNL1     0.0229
     14 C         3.280742   2.016778   7.907199 C.2        1 UNL1     0.1740
     15 C         2.620375   3.153965   8.629881 C.3        1 UNL1     0.0520
     16 C         1.205745   2.731715   9.002017 C.3        1 UNL1     0.1322
     17 O         0.439437   2.408932   7.82064 O.3        1 UNL1     -0.4828
     18 C         1.149091   1.671246   10.104251 C.ar        1 UNL1     -0.0067
     19 C         -0.096284   1.321538   10.665462 C.ar        1 UNL1     -0.0516
     20 C         -0.178463   0.390313   11.70759 C.ar        1 UNL1     -0.0198
     21 C         0.975556   -0.191442   12.201178 C.ar        1 UNL1     0.1169
     22 C         2.213286   0.107549   11.646681 C.ar        1 UNL1     -0.0198
     23 C         2.2939   1.024916   10.59217 C.ar        1 UNL1     -0.0516
     24 O         0.860073   -1.065475   13.241913 O.3        1 UNL1     -0.5068
     25 O         4.475799   1.780728   8.064062 O.2        1 UNL1     -0.2917
     26 O         4.244803   -0.008997   6.061051 O.3        1 UNL1     -0.5058
     27 O         -0.935382   -1.851858   1.498538 O.3        1 UNL1     -0.3648
     28 O         -1.536152   1.360149   -0.032564 O.3        1 UNL1     -0.3841
     29 O         1.477516   0.832761   1.835729 O.3        1 UNL1     -0.3863
     30 O         -1.584461   2.651463   2.739459 O.3        1 UNL1     -0.3829
     31 H         -2.430204   -0.715158   0.82667 H        1 UNL1     0.0937
     32 H         0.0   0.0   0.0 H        1 UNL1     0.0671
     33 H         0.327562   2.34433   1.145436 H        1 UNL1     0.0649
     34 H         0.167935   2.142083   3.678381 H        1 UNL1     0.0683
     35 H         -1.752916   0.824965   4.446353 H        1 UNL1     0.1085
     36 H         2.548399   -0.952991   4.40624 H        1 UNL1     0.0691
     37 H         -0.846195   1.20402   5.97284 H        1 UNL1     0.0691
     38 H         2.610401   4.015146   7.953277 H        1 UNL1     0.0385
     39 H         3.218861   3.416506   9.508895 H        1 UNL1     0.0385
     40 H         0.704371   3.614266   9.421836 H        1 UNL1     0.0789
     41 H         -1.015768   1.770935   10.301811 H        1 UNL1     0.0623
     42 H         -1.143504   0.137856   12.139994 H        1 UNL1     0.0654
     43 H         3.121759   -0.353486   12.015509 H        1 UNL1     0.0654
     44 H         3.2761   1.226996   10.175886 H        1 UNL1     0.0623
     45 H         0.001979   -1.514319   13.17169 H        1 UNL1     0.2921
     46 H         4.42075   -0.593827   6.814993 H        1 UNL1     0.2922
     47 H         -0.381882   -1.928823   2.288205 H        1 UNL1     0.2126
     48 H         -1.718623   0.908431   -0.878961 H        1 UNL1     0.2101
     49 H         1.697638   0.81532   2.780734 H        1 UNL1     0.2100
     50 H         -1.305815   3.224002   1.994967 H        1 UNL1     0.2102
@<TRIPOS>BOND
     1     1     2    1
     2     1     6    1
     3     2     3    1
     4     3     4    1
     5     3    29    1
     6     3    33    1
     7     4     5    1
     8     5     6    1
     9     5     7    1
    10     5    35    1
    11     7     8    1
    12     8     9   ar
    13     8    13   ar
    14     9    10   ar
    15     9    36    1
    16    10    11   ar
    17    10    26    1
    18    11    12   ar
    19    11    14    1
    20    12    13   ar
    21    12    17    1
    22    13    37    1
    23    14    15    1
    24    14    25    2
    25    15    16    1
    26    15    38    1
    27    15    39    1
    28    16    17    1
    29    16    18    1
    30    16    40    1
    31    18    19   ar
    32    18    23   ar
    33    19    20   ar
    34    19    41    1
    35    20    21   ar
    36    20    42    1
    37    21    22   ar
    38    21    24    1
    39    22    23   ar
    40    22    43    1
    41    23    44    1
    42    24    45    1
    43    26    46    1
    44    27    47    1
    45    28    48    1
    46    29    49    1
    47    30    50    1
    48     1    31    1
    49     1    27    1
    50     2    32    1
    51     2    28    1
    52     4    34    1
    53     4    30    1
