@<TRIPOS>MOLECULE
*****
 50 53 0 0 0
SMALL
GASTEIGER

@<TRIPOS>ATOM
     1 C         -0.314613   -1.347031   1.690364 C.3        1 UNL1     0.1889
     2 C         -0.459114   -0.978224   0.189351 C.3        1 UNL1     0.1342
     3 C         -1.904678   -0.962437   -0.330805 C.3        1 UNL1     0.1174
     4 C         -2.783335   -2.030213   0.325648 C.3        1 UNL1     0.1456
     5 C         -2.617986   -2.071688   1.85578 C.3        1 UNL1     0.2326
     6 O         -1.249667   -2.291166   2.191042 O.3        1 UNL1     -0.3076
     7 O         -3.188906   -0.932667   2.52511 O.3        1 UNL1     -0.4605
     8 C         -3.687152   -1.162611   3.794915 C.ar        1 UNL1     0.1310
     9 C         -4.498528   -2.240898   4.164057 C.ar        1 UNL1     0.0226
     10 C         -4.939705   -2.396218   5.48358 C.ar        1 UNL1     0.1343
     11 C         -4.560215   -1.489092   6.471988 C.ar        1 UNL1     0.1007
     12 C         -3.784038   -0.385806   6.107171 C.ar        1 UNL1     0.1389
     13 C         -3.34275   -0.228418   4.779796 C.ar        1 UNL1     0.0229
     14 C         -4.928146   -1.650893   7.897681 C.2        1 UNL1     0.1740
     15 C         -4.252364   -0.71186   8.853236 C.3        1 UNL1     0.0520
     16 C         -4.190963   0.667228   8.211127 C.3        1 UNL1     0.1322
     17 O         -3.443098   0.624872   6.975824 O.3        1 UNL1     -0.4828
     18 C         -5.552334   1.358714   8.105104 C.ar        1 UNL1     -0.0067
     19 C         -5.941949   1.936645   6.879376 C.ar        1 UNL1     -0.0516
     20 C         -7.159414   2.617643   6.761126 C.ar        1 UNL1     -0.0198
     21 C         -7.990868   2.733717   7.860689 C.ar        1 UNL1     0.1169
     22 C         -7.650132   2.146496   9.072261 C.ar        1 UNL1     -0.0198
     23 C         -6.441217   1.44959   9.185855 C.ar        1 UNL1     -0.0516
     24 O         -9.150991   3.436608   7.717651 O.3        1 UNL1     -0.5068
     25 O         -5.671912   -2.538218   8.307501 O.2        1 UNL1     -0.2917
     26 O         -5.729701   -3.469   5.777909 O.3        1 UNL1     -0.5058
     27 O         -0.203615   -0.21769   2.541866 O.3        1 UNL1     -0.3648
     28 O         0.266129   -1.947196   -0.590279 O.3        1 UNL1     -0.3841
     29 O         -2.463514   0.349344   -0.235594 O.3        1 UNL1     -0.3863
     30 O         -2.438393   -3.324754   -0.213676 O.3        1 UNL1     -0.3829
     31 H         0.647898   -1.859512   1.795318 H        1 UNL1     0.0937
     32 H         0.0   0.0   0.0 H        1 UNL1     0.0671
     33 H         -1.876872   -1.190433   -1.405498 H        1 UNL1     0.0649
     34 H         -3.835994   -1.85092   0.080367 H        1 UNL1     0.0683
     35 H         -3.168511   -2.971715   2.157032 H        1 UNL1     0.1085
     36 H         -4.781941   -3.010419   3.454385 H        1 UNL1     0.0691
     37 H         -2.74038   0.639793   4.521238 H        1 UNL1     0.0691
     38 H         -3.24764   -1.10255   9.046671 H        1 UNL1     0.0385
     39 H         -4.804267   -0.703877   9.799342 H        1 UNL1     0.0385
     40 H         -3.591258   1.306227   8.873362 H        1 UNL1     0.0789
     41 H         -5.302791   1.867244   6.003983 H        1 UNL1     0.0623
     42 H         -7.443169   3.069228   5.813726 H        1 UNL1     0.0654
     43 H         -8.30079   2.21841   9.935617 H        1 UNL1     0.0654
     44 H         -6.211803   0.994288   10.144455 H        1 UNL1     0.0623
     45 H         -8.928358   4.349273   7.472305 H        1 UNL1     0.2921
     46 H         -5.319425   -3.987829   6.48777 H        1 UNL1     0.2922
     47 H         0.534249   0.341678   2.261645 H        1 UNL1     0.2126
     48 H         1.204032   -1.870983   -0.329009 H        1 UNL1     0.2101
     49 H         -2.031448   0.939233   -0.873673 H        1 UNL1     0.2100
     50 H         -2.680126   -3.330017   -1.163018 H        1 UNL1     0.2102
@<TRIPOS>BOND
     1     1     2    1
     2     1     6    1
     3     2     3    1
     4     3     4    1
     5     3    29    1
     6     3    33    1
     7     4     5    1
     8     5     6    1
     9     5     7    1
    10     5    35    1
    11     7     8    1
    12     8     9   ar
    13     8    13   ar
    14     9    10   ar
    15     9    36    1
    16    10    11   ar
    17    10    26    1
    18    11    12   ar
    19    11    14    1
    20    12    13   ar
    21    12    17    1
    22    13    37    1
    23    14    15    1
    24    14    25    2
    25    15    16    1
    26    15    38    1
    27    15    39    1
    28    16    17    1
    29    16    18    1
    30    16    40    1
    31    18    19   ar
    32    18    23   ar
    33    19    20   ar
    34    19    41    1
    35    20    21   ar
    36    20    42    1
    37    21    22   ar
    38    21    24    1
    39    22    23   ar
    40    22    43    1
    41    23    44    1
    42    24    45    1
    43    26    46    1
    44    27    47    1
    45    28    48    1
    46    29    49    1
    47    30    50    1
    48     1    31    1
    49     1    27    1
    50     2    32    1
    51     2    28    1
    52     4    34    1
    53     4    30    1
