@<TRIPOS>MOLECULE
*****
 50 53 0 0 0
SMALL
GASTEIGER

@<TRIPOS>ATOM
     1 C         -0.33072   -1.32772   1.702524 C.3        1 UNL1     0.1889
     2 C         -0.46135   -0.975821   0.19619 C.3        1 UNL1     0.1342
     3 C         -1.902109   -0.965272   -0.337258 C.3        1 UNL1     0.1174
     4 C         -2.787286   -2.025181   0.323175 C.3        1 UNL1     0.1456
     5 C         -2.635897   -2.049448   1.85512 C.3        1 UNL1     0.2326
     6 O         -1.270806   -2.26573   2.205288 O.3        1 UNL1     -0.3076
     7 O         -3.212268   -0.902691   2.506322 O.3        1 UNL1     -0.4605
     8 C         -3.721753   -1.117957   3.774239 C.ar        1 UNL1     0.1310
     9 C         -4.536741   -2.191734   4.148536 C.ar        1 UNL1     0.0226
     10 C         -4.989571   -2.331826   5.465815 C.ar        1 UNL1     0.1343
     11 C         -4.618461   -1.41355   6.447083 C.ar        1 UNL1     0.1007
     12 C         -3.838699   -0.314716   6.076515 C.ar        1 UNL1     0.1389
     13 C         -3.38569   -0.172646   4.751362 C.ar        1 UNL1     0.0229
     14 C         -4.998984   -1.558928   7.871239 C.2        1 UNL1     0.1740
     15 C         -4.331293   -0.6092   8.8219 C.3        1 UNL1     0.0520
     16 C         -4.263739   0.762433   8.164621 C.3        1 UNL1     0.1322
     17 O         -3.505048   0.705745   6.936515 O.3        1 UNL1     -0.4828
     18 C         -5.623871   1.453021   8.038713 C.ar        1 UNL1     -0.0067
     19 C         -6.003649   2.014536   6.802313 C.ar        1 UNL1     -0.0516
     20 C         -7.21979   2.69441   6.665439 C.ar        1 UNL1     -0.0198
     21 C         -8.059689   2.82567   7.756845 C.ar        1 UNL1     0.1169
     22 C         -7.728683   2.254696   8.978837 C.ar        1 UNL1     -0.0198
     23 C         -6.521064   1.558857   9.111204 C.ar        1 UNL1     -0.0516
     24 O         -9.218285   3.527076   7.595336 O.3        1 UNL1     -0.5068
     25 O         -5.746652   -2.441308   8.284619 O.2        1 UNL1     -0.2917
     26 O         -5.782519   -3.400961   5.765431 O.3        1 UNL1     -0.5058
     27 O         -0.226866   -0.188885   2.542201 O.3        1 UNL1     -0.3648
     28 O         0.270434   -1.953854   -0.565814 O.3        1 UNL1     -0.3841
     29 O         -2.461077   0.347747   -0.261953 O.3        1 UNL1     -0.3863
     30 O         -2.438153   -3.325881   -0.198339 O.3        1 UNL1     -0.3829
     31 H         0.630516   -1.839407   1.82202 H        1 UNL1     0.0937
     32 H         0.0   0.0   0.0 H        1 UNL1     0.0671
     33 H         -1.864646   -1.205401   -1.409011 H        1 UNL1     0.0649
     34 H         -3.837571   -1.848205   0.066307 H        1 UNL1     0.0683
     35 H         -3.18963   -2.945774   2.161483 H        1 UNL1     0.1085
     36 H         -4.81418   -2.96925   3.445247 H        1 UNL1     0.0691
     37 H         -2.78075   0.69239   4.488201 H        1 UNL1     0.0691
     38 H         -3.328453   -0.997918   9.028631 H        1 UNL1     0.0385
     39 H         -4.891498   -0.590245   9.762958 H        1 UNL1     0.0385
     40 H         -3.669651   1.408809   8.824757 H        1 UNL1     0.0789
     41 H         -5.357755   1.933053   5.932927 H        1 UNL1     0.0623
     42 H         -7.49594   3.133298   5.70986 H        1 UNL1     0.0654
     43 H         -8.385982   2.338535   9.836065 H        1 UNL1     0.0654
     44 H         -6.299343   1.116427   10.077609 H        1 UNL1     0.0623
     45 H         -8.993416   4.434739   7.333997 H        1 UNL1     0.2921
     46 H         -5.378003   -3.912518   6.483824 H        1 UNL1     0.2922
     47 H         0.515623   0.36546   2.264225 H        1 UNL1     0.2126
     48 H         1.203231   -1.886785   -0.284525 H        1 UNL1     0.2101
     49 H         -2.022781   0.930246   -0.902567 H        1 UNL1     0.2100
     50 H         -2.671235   -3.341757   -1.149724 H        1 UNL1     0.2102
@<TRIPOS>BOND
     1     1     2    1
     2     1     6    1
     3     2     3    1
     4     3     4    1
     5     3    29    1
     6     3    33    1
     7     4     5    1
     8     5     6    1
     9     5     7    1
    10     5    35    1
    11     7     8    1
    12     8     9   ar
    13     8    13   ar
    14     9    10   ar
    15     9    36    1
    16    10    11   ar
    17    10    26    1
    18    11    12   ar
    19    11    14    1
    20    12    13   ar
    21    12    17    1
    22    13    37    1
    23    14    15    1
    24    14    25    2
    25    15    16    1
    26    15    38    1
    27    15    39    1
    28    16    17    1
    29    16    18    1
    30    16    40    1
    31    18    19   ar
    32    18    23   ar
    33    19    20   ar
    34    19    41    1
    35    20    21   ar
    36    20    42    1
    37    21    22   ar
    38    21    24    1
    39    22    23   ar
    40    22    43    1
    41    23    44    1
    42    24    45    1
    43    26    46    1
    44    27    47    1
    45    28    48    1
    46    29    49    1
    47    30    50    1
    48     1    31    1
    49     1    27    1
    50     2    32    1
    51     2    28    1
    52     4    34    1
    53     4    30    1
