@<TRIPOS>MOLECULE
*****
 50 53 0 0 0
SMALL
GASTEIGER

@<TRIPOS>ATOM
     1 C         -2.05821   -0.694702   0.22796 C.3        1 UNL1     0.1889
     2 C         -0.712414   -0.18803   0.812817 C.3        1 UNL1     0.1342
     3 C         -0.064332   -1.12966   1.839359 C.3        1 UNL1     0.1174
     4 C         -1.092747   -1.865297   2.702098 C.3        1 UNL1     0.1456
     5 C         -2.241539   -2.463545   1.869788 C.3        1 UNL1     0.2326
     6 O         -2.881525   -1.436518   1.115798 O.3        1 UNL1     -0.3076
     7 O         -1.841965   -3.589358   1.067163 O.3        1 UNL1     -0.4605
     8 C         -1.230799   -4.629712   1.743674 C.ar        1 UNL1     0.1310
     9 C         -0.14291   -5.373498   1.274012 C.ar        1 UNL1     0.0226
     10 C         0.41824   -6.399795   2.04325 C.ar        1 UNL1     0.1343
     11 C         -0.080295   -6.691699   3.312146 C.ar        1 UNL1     0.1007
     12 C         -1.192392   -5.98325   3.774881 C.ar        1 UNL1     0.1389
     13 C         -1.75811   -4.953133   3.000122 C.ar        1 UNL1     0.0229
     14 C         0.526999   -7.708628   4.201642 C.2        1 UNL1     0.1740
     15 C         0.005574   -7.735282   5.608395 C.3        1 UNL1     0.0520
     16 C         -1.502446   -7.53001   5.567226 C.3        1 UNL1     0.1322
     17 O         -1.830768   -6.260226   4.961484 O.3        1 UNL1     -0.4828
     18 C         -2.271359   -8.723438   4.99519 C.ar        1 UNL1     -0.0067
     19 C         -3.679697   -8.73683   5.063147 C.ar        1 UNL1     -0.0516
     20 C         -4.411165   -9.833786   4.592399 C.ar        1 UNL1     -0.0198
     21 C         -3.747179   -10.924143   4.059415 C.ar        1 UNL1     0.1169
     22 C         -2.362805   -10.926267   3.948321 C.ar        1 UNL1     -0.0198
     23 C         -1.632119   -9.821621   4.402095 C.ar        1 UNL1     -0.0516
     24 O         -4.490876   -11.990116   3.645872 O.3        1 UNL1     -0.5068
     25 O         1.453105   -8.439371   3.859841 O.2        1 UNL1     -0.2917
     26 O         1.477195   -7.088074   1.527043 O.3        1 UNL1     -0.5058
     27 O         -1.920839   -1.344843   -1.025529 O.3        1 UNL1     -0.3648
     28 O         -0.946762   1.0696   1.473235 O.3        1 UNL1     -0.3841
     29 O         0.859018   -2.015349   1.202873 O.3        1 UNL1     -0.3863
     30 O         -1.648524   -0.94414   3.665566 O.3        1 UNL1     -0.3829
     31 H         -2.657567   0.19501   0.00601 H        1 UNL1     0.0937
     32 H         0.0   0.0   0.0 H        1 UNL1     0.0671
     33 H         0.541891   -0.51664   2.520842 H        1 UNL1     0.0649
     34 H         -0.602332   -2.664581   3.268703 H        1 UNL1     0.0683
     35 H         -2.963872   -2.804052   2.62223 H        1 UNL1     0.1085
     36 H         0.325509   -5.158413   0.319841 H        1 UNL1     0.0691
     37 H         -2.624212   -4.417296   3.382534 H        1 UNL1     0.0691
     38 H         0.499153   -6.927969   6.159895 H        1 UNL1     0.0385
     39 H         0.281305   -8.686931   6.075423 H        1 UNL1     0.0385
     40 H         -1.844699   -7.435023   6.60663 H        1 UNL1     0.0789
     41 H         -4.223889   -7.897085   5.485444 H        1 UNL1     0.0623
     42 H         -5.496182   -9.837222   4.661234 H        1 UNL1     0.0654
     43 H         -1.833625   -11.768536   3.518831 H        1 UNL1     0.0654
     44 H         -0.552617   -9.852766   4.290063 H        1 UNL1     0.0623
     45 H         -5.351162   -11.662563   3.337108 H        1 UNL1     0.2921
     46 H         1.18125   -7.963973   1.232712 H        1 UNL1     0.2922
     47 H         -1.769517   -2.291626   -0.896832 H        1 UNL1     0.2126
     48 H         -0.438847   1.046571   2.307036 H        1 UNL1     0.2101
     49 H         0.695428   -2.926861   1.493008 H        1 UNL1     0.2100
     50 H         -2.535602   -0.675154   3.348624 H        1 UNL1     0.2102
@<TRIPOS>BOND
     1     1     2    1
     2     1     6    1
     3     2     3    1
     4     3     4    1
     5     3    29    1
     6     3    33    1
     7     4     5    1
     8     5     6    1
     9     5     7    1
    10     5    35    1
    11     7     8    1
    12     8     9   ar
    13     8    13   ar
    14     9    10   ar
    15     9    36    1
    16    10    11   ar
    17    10    26    1
    18    11    12   ar
    19    11    14    1
    20    12    13   ar
    21    12    17    1
    22    13    37    1
    23    14    15    1
    24    14    25    2
    25    15    16    1
    26    15    38    1
    27    15    39    1
    28    16    17    1
    29    16    18    1
    30    16    40    1
    31    18    19   ar
    32    18    23   ar
    33    19    20   ar
    34    19    41    1
    35    20    21   ar
    36    20    42    1
    37    21    22   ar
    38    21    24    1
    39    22    23   ar
    40    22    43    1
    41    23    44    1
    42    24    45    1
    43    26    46    1
    44    27    47    1
    45    28    48    1
    46    29    49    1
    47    30    50    1
    48     1    31    1
    49     1    27    1
    50     2    32    1
    51     2    28    1
    52     4    34    1
    53     4    30    1
