@<TRIPOS>MOLECULE
*****
 50 53 0 0 0
SMALL
GASTEIGER

@<TRIPOS>ATOM
     1 C         -0.288874   -1.360162   1.684433 C.3        1 UNL1     0.1889
     2 C         -0.4517   -0.982   0.18763 C.3        1 UNL1     0.1342
     3 C         -1.902901   -0.970659   -0.316704 C.3        1 UNL1     0.1174
     4 C         -2.768544   -2.047685   0.341927 C.3        1 UNL1     0.1456
     5 C         -2.586336   -2.098609   1.869858 C.3        1 UNL1     0.2326
     6 O         -1.213277   -2.312807   2.188757 O.3        1 UNL1     -0.3076
     7 O         -3.156127   -0.967312   2.553104 O.3        1 UNL1     -0.4605
     8 C         -3.638843   -1.208488   3.826817 C.ar        1 UNL1     0.1310
     9 C         -4.43997   -2.293797   4.197766 C.ar        1 UNL1     0.0226
     10 C         -4.865486   -2.460356   5.521056 C.ar        1 UNL1     0.1343
     11 C         -4.48007   -1.557646   6.511213 C.ar        1 UNL1     0.1007
     12 C         -3.714232   -0.447568   6.145149 C.ar        1 UNL1     0.1389
     13 C         -3.288706   -0.278889   4.814019 C.ar        1 UNL1     0.0229
     14 C         -4.831122   -1.730971   7.939805 C.2        1 UNL1     0.1740
     15 C         -4.149984   -0.794451   8.894022 C.3        1 UNL1     0.0520
     16 C         -4.103516   0.589184   8.260498 C.3        1 UNL1     0.1322
     17 O         -3.369285   0.559263   7.016682 O.3        1 UNL1     -0.4828
     18 C         -5.469852   1.273594   8.174275 C.ar        1 UNL1     -0.0067
     19 C         -5.877615   1.854847   6.956044 C.ar        1 UNL1     -0.0516
     20 C         -7.10015   2.529621   6.855788 C.ar        1 UNL1     -0.0198
     21 C         -7.918693   2.636166   7.965952 C.ar        1 UNL1     0.1169
     22 C         -7.559926   2.045415   9.170584 C.ar        1 UNL1     -0.0198
     23 C         -6.345911   1.354707   9.266216 C.ar        1 UNL1     -0.0516
     24 O         -9.084314   3.333261   7.840309 O.3        1 UNL1     -0.5068
     25 O         -5.565261   -2.62521   8.351949 O.2        1 UNL1     -0.2917
     26 O         -5.646101   -3.539543   5.816995 O.3        1 UNL1     -0.5058
     27 O         -0.174764   -0.236019   2.542378 O.3        1 UNL1     -0.3648
     28 O         0.270278   -1.941657   -0.606419 O.3        1 UNL1     -0.3841
     29 O         -2.467794   0.337346   -0.206479 O.3        1 UNL1     -0.3863
     30 O         -2.422455   -3.336622   -0.209936 O.3        1 UNL1     -0.3829
     31 H         0.677494   -1.868029   1.775442 H        1 UNL1     0.0937
     32 H         0.0   0.0   0.0 H        1 UNL1     0.0671
     33 H         -1.885549   -1.191216   -1.393167 H        1 UNL1     0.0649
     34 H         -3.824769   -1.87254   0.109304 H        1 UNL1     0.0683
     35 H         -3.128648   -3.003677   2.170904 H        1 UNL1     0.1085
     36 H         -4.726972   -3.060205   3.48617 H        1 UNL1     0.0691
     37 H         -2.694152   0.59443   4.554572 H        1 UNL1     0.0691
     38 H         -3.140981   -1.180687   9.073634 H        1 UNL1     0.0385
     39 H         -4.69131   -0.795873   9.846252 H        1 UNL1     0.0385
     40 H         -3.500045   1.227189   8.920264 H        1 UNL1     0.0789
     41 H         -5.248861   1.792907   6.072595 H        1 UNL1     0.0623
     42 H         -7.397961   2.98387   5.913993 H        1 UNL1     0.0654
     43 H         -8.200341   2.109859   10.042149 H        1 UNL1     0.0654
     44 H         -6.102278   0.89639   10.219859 H        1 UNL1     0.0623
     45 H         -9.82279   2.733515   8.034409 H        1 UNL1     0.2921
     46 H         -5.223693   -4.062177   6.516879 H        1 UNL1     0.2922
     47 H         -0.047571   0.570093   2.022892 H        1 UNL1     0.2126
     48 H         1.207965   -1.874707   -0.341858 H        1 UNL1     0.2101
     49 H         -2.045729   0.933978   -0.844982 H        1 UNL1     0.2100
     50 H         -2.674469   -3.336788   -1.156616 H        1 UNL1     0.2102
@<TRIPOS>BOND
     1     1     2    1
     2     1     6    1
     3     2     3    1
     4     3     4    1
     5     3    29    1
     6     3    33    1
     7     4     5    1
     8     5     6    1
     9     5     7    1
    10     5    35    1
    11     7     8    1
    12     8     9   ar
    13     8    13   ar
    14     9    10   ar
    15     9    36    1
    16    10    11   ar
    17    10    26    1
    18    11    12   ar
    19    11    14    1
    20    12    13   ar
    21    12    17    1
    22    13    37    1
    23    14    15    1
    24    14    25    2
    25    15    16    1
    26    15    38    1
    27    15    39    1
    28    16    17    1
    29    16    18    1
    30    16    40    1
    31    18    19   ar
    32    18    23   ar
    33    19    20   ar
    34    19    41    1
    35    20    21   ar
    36    20    42    1
    37    21    22   ar
    38    21    24    1
    39    22    23   ar
    40    22    43    1
    41    23    44    1
    42    24    45    1
    43    26    46    1
    44    27    47    1
    45    28    48    1
    46    29    49    1
    47    30    50    1
    48     1    31    1
    49     1    27    1
    50     2    32    1
    51     2    28    1
    52     4    34    1
    53     4    30    1
