@<TRIPOS>MOLECULE
*****
 50 53 0 0 0
SMALL
GASTEIGER

@<TRIPOS>ATOM
     1 C         -0.323363   -1.325604   1.705584 C.3        1 UNL1     0.1889
     2 C         -0.457893   -0.976911   0.198847 C.3        1 UNL1     0.1342
     3 C         -1.899662   -0.971909   -0.331945 C.3        1 UNL1     0.1174
     4 C         -2.780254   -2.033389   0.332085 C.3        1 UNL1     0.1456
     5 C         -2.625956   -2.054339   1.863788 C.3        1 UNL1     0.2326
     6 O         -1.259541   -2.265651   2.211822 O.3        1 UNL1     -0.3076
     7 O         -3.204751   -0.908207   2.51394 O.3        1 UNL1     -0.4605
     8 C         -3.711631   -1.122843   3.783008 C.ar        1 UNL1     0.1310
     9 C         -4.545445   -2.183261   4.153912 C.ar        1 UNL1     0.0226
     10 C         -4.993951   -2.324208   5.472578 C.ar        1 UNL1     0.1343
     11 C         -4.599793   -1.420599   6.458463 C.ar        1 UNL1     0.1007
     12 C         -3.80069   -0.334471   6.091661 C.ar        1 UNL1     0.1389
     13 C         -3.352007   -0.191492   4.765135 C.ar        1 UNL1     0.0229
     14 C         -4.975545   -1.569027   7.883571 C.2        1 UNL1     0.1740
     15 C         -4.284414   -0.639529   8.837469 C.3        1 UNL1     0.0520
     16 C         -4.193561   0.735335   8.189819 C.3        1 UNL1     0.1322
     17 O         -3.442627   0.672926   6.957231 O.3        1 UNL1     -0.4828
     18 C         -5.540593   1.453213   8.076322 C.ar        1 UNL1     -0.0067
     19 C         -5.914637   2.033549   6.846885 C.ar        1 UNL1     -0.0516
     20 C         -7.117959   2.738038   6.721691 C.ar        1 UNL1     -0.0198
     21 C         -7.950557   2.875232   7.817951 C.ar        1 UNL1     0.1169
     22 C         -7.62552   2.286515   9.033106 C.ar        1 UNL1     -0.0198
     23 C         -6.431046   1.566273   9.153682 C.ar        1 UNL1     -0.0516
     24 O         -9.096033   3.600367   7.668071 O.3        1 UNL1     -0.5068
     25 O         -5.738107   -2.43969   8.294583 O.2        1 UNL1     -0.2917
     26 O         -5.806033   -3.379863   5.768718 O.3        1 UNL1     -0.5058
     27 O         -0.221564   -0.184893   2.542962 O.3        1 UNL1     -0.3648
     28 O         0.275575   -1.954033   -0.562706 O.3        1 UNL1     -0.3841
     29 O         -2.462646   0.339471   -0.258029 O.3        1 UNL1     -0.3863
     30 O         -2.427967   -3.333941   -0.187673 O.3        1 UNL1     -0.3829
     31 H         0.639709   -1.834024   1.82424 H        1 UNL1     0.0937
     32 H         0.0   0.0   0.0 H        1 UNL1     0.0671
     33 H         -1.86342   -1.213904   -1.403321 H        1 UNL1     0.0649
     34 H         -3.831568   -1.860214   0.076839 H        1 UNL1     0.0683
     35 H         -3.176279   -2.951844   2.172833 H        1 UNL1     0.1085
     36 H         -4.841731   -2.950016   3.446508 H        1 UNL1     0.0691
     37 H         -2.731687   0.663505   4.504986 H        1 UNL1     0.0691
     38 H         -3.288279   -1.049234   9.035919 H        1 UNL1     0.0385
     39 H         -4.839157   -0.616596   9.781669 H        1 UNL1     0.0385
     40 H         -3.58348   1.365124   8.851398 H        1 UNL1     0.0789
     41 H         -5.274107   1.947781   5.97395 H        1 UNL1     0.0623
     42 H         -7.389586   3.191136   5.771464 H        1 UNL1     0.0654
     43 H         -8.277458   2.374973   9.893956 H        1 UNL1     0.0654
     44 H         -6.21386   1.110582   10.114942 H        1 UNL1     0.0623
     45 H         -8.854537   4.507391   7.419669 H        1 UNL1     0.2921
     46 H         -5.408464   -3.903707   6.482118 H        1 UNL1     0.2922
     47 H         0.516841   0.372772   2.260779 H        1 UNL1     0.2126
     48 H         1.211344   -1.87183   -0.295663 H        1 UNL1     0.2101
     49 H         -2.027502   0.922122   -0.900649 H        1 UNL1     0.2100
     50 H         -2.667965   -3.354264   -1.137252 H        1 UNL1     0.2102
@<TRIPOS>BOND
     1     1     2    1
     2     1     6    1
     3     2     3    1
     4     3     4    1
     5     3    29    1
     6     3    33    1
     7     4     5    1
     8     5     6    1
     9     5     7    1
    10     5    35    1
    11     7     8    1
    12     8     9   ar
    13     8    13   ar
    14     9    10   ar
    15     9    36    1
    16    10    11   ar
    17    10    26    1
    18    11    12   ar
    19    11    14    1
    20    12    13   ar
    21    12    17    1
    22    13    37    1
    23    14    15    1
    24    14    25    2
    25    15    16    1
    26    15    38    1
    27    15    39    1
    28    16    17    1
    29    16    18    1
    30    16    40    1
    31    18    19   ar
    32    18    23   ar
    33    19    20   ar
    34    19    41    1
    35    20    21   ar
    36    20    42    1
    37    21    22   ar
    38    21    24    1
    39    22    23   ar
    40    22    43    1
    41    23    44    1
    42    24    45    1
    43    26    46    1
    44    27    47    1
    45    28    48    1
    46    29    49    1
    47    30    50    1
    48     1    31    1
    49     1    27    1
    50     2    32    1
    51     2    28    1
    52     4    34    1
    53     4    30    1
