@<TRIPOS>MOLECULE
*****
 50 53 0 0 0
SMALL
GASTEIGER

@<TRIPOS>ATOM
     1 C         -0.344228   -1.337307   1.692313 C.3        1 UNL1     0.1889
     2 C         -0.468817   -0.973831   0.188217 C.3        1 UNL1     0.1342
     3 C         -1.908218   -0.949115   -0.348419 C.3        1 UNL1     0.1174
     4 C         -2.802535   -2.007255   0.302468 C.3        1 UNL1     0.1456
     5 C         -2.654888   -2.043447   1.834544 C.3        1 UNL1     0.2326
     6 O         -1.292208   -2.272042   2.186274 O.3        1 UNL1     -0.3076
     7 O         -3.224503   -0.897196   2.492546 O.3        1 UNL1     -0.4605
     8 C         -3.738898   -1.117844   3.757552 C.ar        1 UNL1     0.1310
     9 C         -4.562761   -2.188245   4.121959 C.ar        1 UNL1     0.0226
     10 C         -5.020078   -2.334499   5.437015 C.ar        1 UNL1     0.1343
     11 C         -4.644794   -1.426103   6.425862 C.ar        1 UNL1     0.1007
     12 C         -3.855981   -0.330413   6.065275 C.ar        1 UNL1     0.1389
     13 C         -3.39845   -0.182126   4.742359 C.ar        1 UNL1     0.0229
     14 C         -5.030127   -1.578948   7.847942 C.2        1 UNL1     0.1740
     15 C         -4.357958   -0.641073   8.807176 C.3        1 UNL1     0.0520
     16 C         -4.278565   0.734736   8.160025 C.3        1 UNL1     0.1322
     17 O         -3.517082   0.681316   6.933502 O.3        1 UNL1     -0.4828
     18 C         -5.633234   1.436248   8.035614 C.ar        1 UNL1     -0.0067
     19 C         -5.998074   2.024907   6.807369 C.ar        1 UNL1     -0.0516
     20 C         -7.208724   2.715024   6.673099 C.ar        1 UNL1     -0.0198
     21 C         -8.057915   2.829565   7.759185 C.ar        1 UNL1     0.1169
     22 C         -7.741768   2.232045   8.972387 C.ar        1 UNL1     -0.0198
     23 C         -6.539695   1.526111   9.101751 C.ar        1 UNL1     -0.0516
     24 O         -9.210664   3.541342   7.601248 O.3        1 UNL1     -0.5068
     25 O         -5.785364   -2.458742   8.252991 O.2        1 UNL1     -0.2917
     26 O         -5.821671   -3.399881   5.726834 O.3        1 UNL1     -0.5058
     27 O         -0.234132   -0.205218   2.540276 O.3        1 UNL1     -0.3648
     28 O         0.257678   -1.951704   -0.579034 O.3        1 UNL1     -0.3841
     29 O         -2.457894   0.367336   -0.26508 O.3        1 UNL1     -0.3863
     30 O         -2.461561   -3.306719   -0.227457 O.3        1 UNL1     -0.3829
     31 H         0.61302   -1.856748   1.810364 H        1 UNL1     0.0937
     32 H         0.0   0.0   0.0 H        1 UNL1     0.0671
     33 H         -1.869991   -1.181923   -1.421759 H        1 UNL1     0.0649
     34 H         -3.850919   -1.820895   0.044472 H        1 UNL1     0.0683
     35 H         -3.21577   -2.937899   2.133285 H        1 UNL1     0.1085
     36 H         -4.844071   -2.95859   3.412343 H        1 UNL1     0.0691
     37 H         -2.786459   0.680294   4.487032 H        1 UNL1     0.0691
     38 H         -3.358559   -1.038674   9.013672 H        1 UNL1     0.0385
     39 H         -4.920484   -0.624776   9.746898 H        1 UNL1     0.0385
     40 H         -3.68147   1.371919   8.826355 H        1 UNL1     0.0789
     41 H         -5.344637   1.956883   5.942474 H        1 UNL1     0.0623
     42 H         -7.4733   3.174781   5.724081 H        1 UNL1     0.0654
     43 H         -8.406483   2.30274   9.825069 H        1 UNL1     0.0654
     44 H         -6.329666   1.062936   10.061022 H        1 UNL1     0.0623
     45 H         -8.977682   4.454741   7.36857 H        1 UNL1     0.2921
     46 H         -5.423519   -3.918814   6.44349 H        1 UNL1     0.2922
     47 H         0.510344   0.347947   2.265279 H        1 UNL1     0.2126
     48 H         1.19312   -1.881614   -0.307429 H        1 UNL1     0.2101
     49 H         -2.019773   0.949109   -0.906473 H        1 UNL1     0.2100
     50 H         -2.697771   -3.316088   -1.178156 H        1 UNL1     0.2102
@<TRIPOS>BOND
     1     1     2    1
     2     1     6    1
     3     2     3    1
     4     3     4    1
     5     3    29    1
     6     3    33    1
     7     4     5    1
     8     5     6    1
     9     5     7    1
    10     5    35    1
    11     7     8    1
    12     8     9   ar
    13     8    13   ar
    14     9    10   ar
    15     9    36    1
    16    10    11   ar
    17    10    26    1
    18    11    12   ar
    19    11    14    1
    20    12    13   ar
    21    12    17    1
    22    13    37    1
    23    14    15    1
    24    14    25    2
    25    15    16    1
    26    15    38    1
    27    15    39    1
    28    16    17    1
    29    16    18    1
    30    16    40    1
    31    18    19   ar
    32    18    23   ar
    33    19    20   ar
    34    19    41    1
    35    20    21   ar
    36    20    42    1
    37    21    22   ar
    38    21    24    1
    39    22    23   ar
    40    22    43    1
    41    23    44    1
    42    24    45    1
    43    26    46    1
    44    27    47    1
    45    28    48    1
    46    29    49    1
    47    30    50    1
    48     1    31    1
    49     1    27    1
    50     2    32    1
    51     2    28    1
    52     4    34    1
    53     4    30    1
