@<TRIPOS>MOLECULE
*****
 50 53 0 0 0
SMALL
GASTEIGER

@<TRIPOS>ATOM
     1 C         -0.320681   -1.361392   1.677671 C.3        1 UNL1     0.1889
     2 C         -0.463154   -0.978065   0.180106 C.3        1 UNL1     0.1342
     3 C         -1.908459   -0.951562   -0.340334 C.3        1 UNL1     0.1174
     4 C         -2.791681   -2.02181   0.30589 C.3        1 UNL1     0.1456
     5 C         -2.627039   -2.078176   1.835622 C.3        1 UNL1     0.2326
     6 O         -1.259742   -2.306327   2.169258 O.3        1 UNL1     -0.3076
     7 O         -3.193558   -0.943111   2.515332 O.3        1 UNL1     -0.4605
     8 C         -3.703412   -1.185208   3.778252 C.ar        1 UNL1     0.1310
     9 C         -4.526546   -2.261289   4.12725 C.ar        1 UNL1     0.0226
     10 C         -4.979093   -2.429892   5.44128 C.ar        1 UNL1     0.1343
     11 C         -4.599638   -1.538823   6.444201 C.ar        1 UNL1     0.1007
     12 C         -3.811525   -0.437504   6.099586 C.ar        1 UNL1     0.1389
     13 C         -3.358791   -0.266733   4.777732 C.ar        1 UNL1     0.0229
     14 C         -4.979811   -1.715893   7.864859 C.2        1 UNL1     0.1740
     15 C         -4.303566   -0.794994   8.83758 C.3        1 UNL1     0.0520
     16 C         -4.225762   0.591695   8.213884 C.3        1 UNL1     0.1322
     17 O         -3.468839   0.558974   6.983816 O.3        1 UNL1     -0.4828
     18 C         -5.580473   1.295942   8.10656 C.ar        1 UNL1     -0.0067
     19 C         -5.949499   1.905817   6.889972 C.ar        1 UNL1     -0.0516
     20 C         -7.160235   2.598766   6.772062 C.ar        1 UNL1     -0.0198
     21 C         -8.005348   2.695058   7.863089 C.ar        1 UNL1     0.1169
     22 C         -7.685075   2.076607   9.064663 C.ar        1 UNL1     -0.0198
     23 C         -6.482943   1.367932   9.177428 C.ar        1 UNL1     -0.0516
     24 O         -9.158258   3.410041   7.721673 O.3        1 UNL1     -0.5068
     25 O         -5.73406   -2.60213   8.257515 O.2        1 UNL1     -0.2917
     26 O         -5.78023   -3.499684   5.715706 O.3        1 UNL1     -0.5058
     27 O         -0.205391   -0.240475   2.539669 O.3        1 UNL1     -0.3648
     28 O         0.258416   -1.942693   -0.60827 O.3        1 UNL1     -0.3841
     29 O         -2.46199   0.361541   -0.233108 O.3        1 UNL1     -0.3863
     30 O         -2.451817   -3.312675   -0.245336 O.3        1 UNL1     -0.3829
     31 H         0.639701   -1.878739   1.778159 H        1 UNL1     0.0937
     32 H         0.0   0.0   0.0 H        1 UNL1     0.0671
     33 H         -1.881204   -1.169672   -1.417091 H        1 UNL1     0.0649
     34 H         -3.843516   -1.835962   0.061956 H        1 UNL1     0.0683
     35 H         -3.181325   -2.978717   2.128322 H        1 UNL1     0.1085
     36 H         -4.810918   -3.019175   3.405543 H        1 UNL1     0.0691
     37 H         -2.747245   0.599632   4.535005 H        1 UNL1     0.0691
     38 H         -3.303642   -1.196603   9.033514 H        1 UNL1     0.0385
     39 H         -4.862612   -0.794564   9.779517 H        1 UNL1     0.0385
     40 H         -3.625843   1.21702   8.888855 H        1 UNL1     0.0789
     41 H         -5.299296   1.852334   6.021626 H        1 UNL1     0.0623
     42 H         -7.428043   3.074906   5.832072 H        1 UNL1     0.0654
     43 H         -8.346599   2.132977   9.920887 H        1 UNL1     0.0654
     44 H         -6.269646   0.888227   10.127813 H        1 UNL1     0.0623
     45 H         -8.925286   4.332066   7.525943 H        1 UNL1     0.2921
     46 H         -5.379739   -4.031066   6.421858 H        1 UNL1     0.2922
     47 H         0.523597   0.32782   2.25423 H        1 UNL1     0.2126
     48 H         1.200019   -1.855016   -0.364488 H        1 UNL1     0.2101
     49 H         -2.033087   0.953604   -0.871307 H        1 UNL1     0.2100
     50 H         -2.698447   -3.310072   -1.193428 H        1 UNL1     0.2102
@<TRIPOS>BOND
     1     1     2    1
     2     1     6    1
     3     2     3    1
     4     3     4    1
     5     3    29    1
     6     3    33    1
     7     4     5    1
     8     5     6    1
     9     5     7    1
    10     5    35    1
    11     7     8    1
    12     8     9   ar
    13     8    13   ar
    14     9    10   ar
    15     9    36    1
    16    10    11   ar
    17    10    26    1
    18    11    12   ar
    19    11    14    1
    20    12    13   ar
    21    12    17    1
    22    13    37    1
    23    14    15    1
    24    14    25    2
    25    15    16    1
    26    15    38    1
    27    15    39    1
    28    16    17    1
    29    16    18    1
    30    16    40    1
    31    18    19   ar
    32    18    23   ar
    33    19    20   ar
    34    19    41    1
    35    20    21   ar
    36    20    42    1
    37    21    22   ar
    38    21    24    1
    39    22    23   ar
    40    22    43    1
    41    23    44    1
    42    24    45    1
    43    26    46    1
    44    27    47    1
    45    28    48    1
    46    29    49    1
    47    30    50    1
    48     1    31    1
    49     1    27    1
    50     2    32    1
    51     2    28    1
    52     4    34    1
    53     4    30    1
