@<TRIPOS>MOLECULE
*****
 50 53 0 0 0
SMALL
GASTEIGER

@<TRIPOS>ATOM
     1 C         -0.186462   -2.113453   0.518993 C.3        1 UNL1     0.1889
     2 C         0.170588   -0.974669   -0.473795 C.3        1 UNL1     0.1342
     3 C         -0.591317   -1.023949   -1.807038 C.3        1 UNL1     0.1174
     4 C         -0.862919   -2.453244   -2.282921 C.3        1 UNL1     0.1456
     5 C         -1.408759   -3.355196   -1.160911 C.3        1 UNL1     0.2326
     6 O         -0.498764   -3.37031   -0.063392 O.3        1 UNL1     -0.3076
     7 O         -2.757418   -3.035406   -0.773387 O.3        1 UNL1     -0.4605
     8 C         -3.533314   -4.09773   -0.345627 C.ar        1 UNL1     0.1310
     9 C         -4.446287   -4.059522   0.71377 C.ar        1 UNL1     0.0226
     10 C         -5.200107   -5.18708   1.060569 C.ar        1 UNL1     0.1343
     11 C         -5.076422   -6.374499   0.340444 C.ar        1 UNL1     0.1007
     12 C         -4.138266   -6.43706   -0.693351 C.ar        1 UNL1     0.1389
     13 C         -3.378516   -5.303953   -1.040165 C.ar        1 UNL1     0.0229
     14 C         -5.908187   -7.570179   0.610022 C.2        1 UNL1     0.1740
     15 C         -5.801123   -8.676325   -0.398208 C.3        1 UNL1     0.0520
     16 C         -4.341823   -8.813198   -0.810113 C.3        1 UNL1     0.1322
     17 O         -3.857303   -7.58522   -1.396953 O.3        1 UNL1     -0.4828
     18 C         -3.44344   -9.38977   0.28679 C.ar        1 UNL1     -0.0067
     19 C         -3.466806   -10.776027   0.543615 C.ar        1 UNL1     -0.0516
     20 C         -2.693285   -11.329374   1.570959 C.ar        1 UNL1     -0.0198
     21 C         -1.899681   -10.507977   2.351552 C.ar        1 UNL1     0.1169
     22 C         -1.82994   -9.143647   2.101396 C.ar        1 UNL1     -0.0198
     23 C         -2.589237   -8.592621   1.062216 C.ar        1 UNL1     -0.0516
     24 O         -1.189318   -11.077349   3.36723 O.3        1 UNL1     -0.5068
     25 O         -6.701607   -7.645143   1.544553 O.2        1 UNL1     -0.2917
     26 O         -6.072286   -5.084152   2.10474 O.3        1 UNL1     -0.5058
     27 O         -1.146217   -1.734405   1.492635 O.3        1 UNL1     -0.3648
     28 O         1.574873   -1.059703   -0.779507 O.3        1 UNL1     -0.3841
     29 O         -1.775923   -0.227177   -1.743827 O.3        1 UNL1     -0.3863
     30 O         0.364074   -3.026925   -2.783987 O.3        1 UNL1     -0.3829
     31 H         0.719892   -2.318229   1.099224 H        1 UNL1     0.0937
     32 H         0.0   0.0   0.0 H        1 UNL1     0.0671
     33 H         0.039362   -0.54893   -2.571446 H        1 UNL1     0.0649
     34 H         -1.574688   -2.441216   -3.115772 H        1 UNL1     0.0683
     35 H         -1.39575   -4.360682   -1.599896 H        1 UNL1     0.1085
     36 H         -4.629095   -3.150638   1.27647 H        1 UNL1     0.0691
     37 H         -2.654042   -5.378974   -1.84825 H        1 UNL1     0.0691
     38 H         -6.429375   -8.406533   -1.253801 H        1 UNL1     0.0385
     39 H         -6.196384   -9.599719   0.038702 H        1 UNL1     0.0385
     40 H         -4.304025   -9.543   -1.630162 H        1 UNL1     0.0789
     41 H         -4.088471   -11.4408   -0.049057 H        1 UNL1     0.0623
     42 H         -2.729016   -12.39819   1.766835 H        1 UNL1     0.0654
     43 H         -1.200261   -8.49341   2.696884 H        1 UNL1     0.0654
     44 H         -2.502342   -7.524453   0.88811 H        1 UNL1     0.0623
     45 H         -1.084576   -10.420169   4.074238 H        1 UNL1     0.2921
     46 H         -6.940516   -5.423583   1.835714 H        1 UNL1     0.2922
     47 H         -0.890332   -2.069663   2.363258 H        1 UNL1     0.2126
     48 H         1.645489   -1.493491   -1.651616 H        1 UNL1     0.2101
     49 H         -2.543644   -0.791355   -1.559162 H        1 UNL1     0.2100
     50 H         1.064281   -2.871064   -2.116806 H        1 UNL1     0.2102
@<TRIPOS>BOND
     1     1     2    1
     2     1     6    1
     3     2     3    1
     4     3     4    1
     5     3    29    1
     6     3    33    1
     7     4     5    1
     8     5     6    1
     9     5     7    1
    10     5    35    1
    11     7     8    1
    12     8     9   ar
    13     8    13   ar
    14     9    10   ar
    15     9    36    1
    16    10    11   ar
    17    10    26    1
    18    11    12   ar
    19    11    14    1
    20    12    13   ar
    21    12    17    1
    22    13    37    1
    23    14    15    1
    24    14    25    2
    25    15    16    1
    26    15    38    1
    27    15    39    1
    28    16    17    1
    29    16    18    1
    30    16    40    1
    31    18    19   ar
    32    18    23   ar
    33    19    20   ar
    34    19    41    1
    35    20    21   ar
    36    20    42    1
    37    21    22   ar
    38    21    24    1
    39    22    23   ar
    40    22    43    1
    41    23    44    1
    42    24    45    1
    43    26    46    1
    44    27    47    1
    45    28    48    1
    46    29    49    1
    47    30    50    1
    48     1    31    1
    49     1    27    1
    50     2    32    1
    51     2    28    1
    52     4    34    1
    53     4    30    1
