@<TRIPOS>MOLECULE
*****
 50 53 0 0 0
SMALL
GASTEIGER

@<TRIPOS>ATOM
     1 C         -2.057334   0.083813   0.728806 C.3        1 UNL1     0.1889
     2 C         -0.57315   0.537446   0.765645 C.3        1 UNL1     0.1342
     3 C         0.118192   0.359491   2.126102 C.3        1 UNL1     0.1174
     4 C         -0.826664   0.594582   3.307244 C.3        1 UNL1     0.1456
     5 C         -2.17549   -0.127939   3.136963 C.3        1 UNL1     0.2326
     6 O         -2.798585   0.285623   1.923048 O.3        1 UNL1     -0.3076
     7 O         -2.07981   -1.558227   3.265193 O.3        1 UNL1     -0.4605
     8 C         -1.342325   -2.206255   2.290666 C.ar        1 UNL1     0.1310
     9 C         -0.016874   -2.632727   2.427056 C.ar        1 UNL1     0.0226
     10 C         0.640256   -3.297842   1.385084 C.ar        1 UNL1     0.1343
     11 C         -0.020504   -3.573993   0.188849 C.ar        1 UNL1     0.1007
     12 C         -1.330919   -3.116847   0.025708 C.ar        1 UNL1     0.1389
     13 C         -1.99057   -2.445768   1.072581 C.ar        1 UNL1     0.0229
     14 C         0.598129   -4.346847   -0.913032 C.2        1 UNL1     0.1740
     15 C         -0.325648   -4.741529   -2.027668 C.3        1 UNL1     0.0520
     16 C         -1.258412   -3.57349   -2.316795 C.3        1 UNL1     0.1322
     17 O         -2.038318   -3.238539   -1.147767 O.3        1 UNL1     -0.4828
     18 C         -0.565145   -2.380866   -2.979933 C.ar        1 UNL1     -0.0067
     19 C         0.281725   -2.599341   -4.085959 C.ar        1 UNL1     -0.0516
     20 C         0.968057   -1.5369   -4.686068 C.ar        1 UNL1     -0.0198
     21 C         0.822002   -0.255315   -4.186033 C.ar        1 UNL1     0.1169
     22 C         -0.030738   -0.003518   -3.119135 C.ar        1 UNL1     -0.0198
     23 C         -0.731475   -1.063013   -2.530498 C.ar        1 UNL1     -0.0516
     24 O         1.535569   0.748379   -4.772396 O.3        1 UNL1     -0.5068
     25 O         1.767465   -4.722369   -0.90204 O.2        1 UNL1     -0.2917
     26 O         1.933255   -3.686606   1.581554 O.3        1 UNL1     -0.5058
     27 O         -2.235181   -1.227476   0.217261 O.3        1 UNL1     -0.3648
     28 O         -0.515868   1.937699   0.435923 O.3        1 UNL1     -0.3841
     29 O         0.786148   -0.901985   2.194275 O.3        1 UNL1     -0.3863
     30 O         -1.07283   2.011216   3.442304 O.3        1 UNL1     -0.3829
     31 H         -2.563359   0.727951   0.001412 H        1 UNL1     0.0937
     32 H         0.0   0.0   0.0 H        1 UNL1     0.0671
     33 H         0.91301   1.114848   2.199712 H        1 UNL1     0.0649
     34 H         -0.352833   0.261476   4.237258 H        1 UNL1     0.0683
     35 H         -2.789405   0.260719   3.959113 H        1 UNL1     0.1085
     36 H         0.533233   -2.497834   3.351884 H        1 UNL1     0.0691
     37 H         -3.010367   -2.09903   0.920001 H        1 UNL1     0.0691
     38 H         -0.886397   -5.62226   -1.69691 H        1 UNL1     0.0385
     39 H         0.268611   -5.023468   -2.903535 H        1 UNL1     0.0385
     40 H         -1.998227   -3.923675   -3.049301 H        1 UNL1     0.0789
     41 H         0.420312   -3.597361   -4.49142 H        1 UNL1     0.0623
     42 H         1.627427   -1.719981   -5.53089 H        1 UNL1     0.0654
     43 H         -0.164106   0.998506   -2.729172 H        1 UNL1     0.0654
     44 H         -1.397228   -0.828385   -1.705533 H        1 UNL1     0.0623
     45 H         1.920814   0.409671   -5.596762 H        1 UNL1     0.2921
     46 H         2.009117   -4.137117   2.43753 H        1 UNL1     0.2922
     47 H         -3.077605   -1.593789   0.520569 H        1 UNL1     0.2126
     48 H         -0.916394   2.033127   -0.44963 H        1 UNL1     0.2101
     49 H         0.8269   -1.301985   1.311023 H        1 UNL1     0.2100
     50 H         -1.627512   2.2943   2.686061 H        1 UNL1     0.2102
@<TRIPOS>BOND
     1     1     2    1
     2     1     6    1
     3     2     3    1
     4     3     4    1
     5     3    29    1
     6     3    33    1
     7     4     5    1
     8     5     6    1
     9     5     7    1
    10     5    35    1
    11     7     8    1
    12     8     9   ar
    13     8    13   ar
    14     9    10   ar
    15     9    36    1
    16    10    11   ar
    17    10    26    1
    18    11    12   ar
    19    11    14    1
    20    12    13   ar
    21    12    17    1
    22    13    37    1
    23    14    15    1
    24    14    25    2
    25    15    16    1
    26    15    38    1
    27    15    39    1
    28    16    17    1
    29    16    18    1
    30    16    40    1
    31    18    19   ar
    32    18    23   ar
    33    19    20   ar
    34    19    41    1
    35    20    21   ar
    36    20    42    1
    37    21    22   ar
    38    21    24    1
    39    22    23   ar
    40    22    43    1
    41    23    44    1
    42    24    45    1
    43    26    46    1
    44    27    47    1
    45    28    48    1
    46    29    49    1
    47    30    50    1
    48     1    31    1
    49     1    27    1
    50     2    32    1
    51     2    28    1
    52     4    34    1
    53     4    30    1
