@<TRIPOS>MOLECULE
*****
 50 53 0 0 0
SMALL
GASTEIGER

@<TRIPOS>ATOM
     1 C         -0.70408   -1.824135   0.973452 C.3        1 UNL1     0.1889
     2 C         -0.005762   -1.0794   -0.19602 C.3        1 UNL1     0.1342
     3 C         -0.624528   -1.33425   -1.579004 C.3        1 UNL1     0.1174
     4 C         -1.160478   -2.759472   -1.735906 C.3        1 UNL1     0.1456
     5 C         -2.001663   -3.210066   -0.527711 C.3        1 UNL1     0.2326
     6 O         -1.230496   -3.106873   0.667079 O.3        1 UNL1     -0.3076
     7 O         -3.276171   -2.547629   -0.437563 O.3        1 UNL1     -0.4605
     8 C         -4.307104   -3.288768   0.111452 C.ar        1 UNL1     0.1310
     9 C         -4.613018   -4.615135   -0.211764 C.ar        1 UNL1     0.0226
     10 C         -5.669874   -5.2872   0.413764 C.ar        1 UNL1     0.1343
     11 C         -6.432208   -4.656175   1.395851 C.ar        1 UNL1     0.1007
     12 C         -6.162406   -3.318694   1.697736 C.ar        1 UNL1     0.1389
     13 C         -5.101374   -2.642324   1.066733 C.ar        1 UNL1     0.0229
     14 C         -7.506083   -5.345246   2.148265 C.2        1 UNL1     0.1740
     15 C         -8.068812   -4.589117   3.315807 C.3        1 UNL1     0.0520
     16 C         -8.203285   -3.124668   2.921774 C.3        1 UNL1     0.1322
     17 O         -6.91751   -2.568407   2.569031 O.3        1 UNL1     -0.4828
     18 C         -9.310762   -2.861055   1.898677 C.ar        1 UNL1     -0.0067
     19 C         -9.034541   -2.063608   0.769078 C.ar        1 UNL1     -0.0516
     20 C         -10.036977   -1.763894   -0.161112 C.ar        1 UNL1     -0.0198
     21 C         -11.318531   -2.248415   0.030427 C.ar        1 UNL1     0.1169
     22 C         -11.613337   -3.06393   1.11526 C.ar        1 UNL1     -0.0198
     23 C         -10.606647   -3.379013   2.035778 C.ar        1 UNL1     -0.0516
     24 O         -12.277695   -1.904458   -0.87627 O.3        1 UNL1     -0.5068
     25 O         -7.874378   -6.491222   1.90417 O.2        1 UNL1     -0.2917
     26 O         -5.916833   -6.579513   0.052481 O.3        1 UNL1     -0.5058
     27 O         -1.645843   -1.024429   1.670831 O.3        1 UNL1     -0.3648
     28 O         1.367098   -1.508885   -0.255219 O.3        1 UNL1     -0.3841
     29 O         -1.601481   -0.338368   -1.888706 O.3        1 UNL1     -0.3863
     30 O         -0.049518   -3.668759   -1.892924 O.3        1 UNL1     -0.3829
     31 H         0.072044   -2.036725   1.716767 H        1 UNL1     0.0937
     32 H         0.0   0.0   0.0 H        1 UNL1     0.0671
     33 H         0.168373   -1.208471   -2.329475 H        1 UNL1     0.0649
     34 H         -1.766129   -2.833202   -2.645934 H        1 UNL1     0.0683
     35 H         -2.170545   -4.279282   -0.706978 H        1 UNL1     0.1085
     36 H         -4.022949   -5.178577   -0.926238 H        1 UNL1     0.0691
     37 H         -4.912603   -1.60098   1.318648 H        1 UNL1     0.0691
     38 H         -7.374871   -4.71036   4.154421 H        1 UNL1     0.0385
     39 H         -9.029721   -5.031259   3.600312 H        1 UNL1     0.0385
     40 H         -8.503083   -2.57314   3.823139 H        1 UNL1     0.0789
     41 H         -8.038824   -1.66369   0.600959 H        1 UNL1     0.0623
     42 H         -9.814359   -1.138073   -1.021811 H        1 UNL1     0.0654
     43 H         -12.609934   -3.461097   1.266792 H        1 UNL1     0.0654
     44 H         -10.869802   -4.027486   2.865885 H        1 UNL1     0.0623
     45 H         -12.372305   -0.938157   -0.87098 H        1 UNL1     0.2921
     46 H         -5.881788   -7.147475   0.838358 H        1 UNL1     0.2922
     47 H         -1.225014   -0.214556   1.991561 H        1 UNL1     0.2126
     48 H         1.780969   -1.23963   0.587363 H        1 UNL1     0.2101
     49 H         -1.165448   0.514554   -2.044247 H        1 UNL1     0.2100
     50 H         0.391497   -3.462026   -2.742912 H        1 UNL1     0.2102
@<TRIPOS>BOND
     1     1     2    1
     2     1     6    1
     3     2     3    1
     4     3     4    1
     5     3    29    1
     6     3    33    1
     7     4     5    1
     8     5     6    1
     9     5     7    1
    10     5    35    1
    11     7     8    1
    12     8     9   ar
    13     8    13   ar
    14     9    10   ar
    15     9    36    1
    16    10    11   ar
    17    10    26    1
    18    11    12   ar
    19    11    14    1
    20    12    13   ar
    21    12    17    1
    22    13    37    1
    23    14    15    1
    24    14    25    2
    25    15    16    1
    26    15    38    1
    27    15    39    1
    28    16    17    1
    29    16    18    1
    30    16    40    1
    31    18    19   ar
    32    18    23   ar
    33    19    20   ar
    34    19    41    1
    35    20    21   ar
    36    20    42    1
    37    21    22   ar
    38    21    24    1
    39    22    23   ar
    40    22    43    1
    41    23    44    1
    42    24    45    1
    43    26    46    1
    44    27    47    1
    45    28    48    1
    46    29    49    1
    47    30    50    1
    48     1    31    1
    49     1    27    1
    50     2    32    1
    51     2    28    1
    52     4    34    1
    53     4    30    1
