@<TRIPOS>MOLECULE
*****
 50 53 0 0 0
SMALL
GASTEIGER

@<TRIPOS>ATOM
     1 C         -1.57626   -0.47543   -1.435331 C.3        1 UNL1     0.1889
     2 C         -0.164307   0.064954   -1.082749 C.3        1 UNL1     0.1342
     3 C         0.104915   1.505223   -1.544931 C.3        1 UNL1     0.1174
     4 C         -0.578268   1.839769   -2.87326 C.3        1 UNL1     0.1456
     5 C         -2.047976   1.382851   -2.912589 C.3        1 UNL1     0.2326
     6 O         -2.128282   -0.018295   -2.661176 O.3        1 UNL1     -0.3076
     7 O         -2.912857   2.160356   -2.064775 O.3        1 UNL1     -0.4605
     8 C         -4.219518   1.717883   -1.962885 C.ar        1 UNL1     0.1310
     9 C         -5.345247   2.399577   -2.437571 C.ar        1 UNL1     0.0226
     10 C         -6.62945   1.859044   -2.301367 C.ar        1 UNL1     0.1343
     11 C         -6.816893   0.611471   -1.707845 C.ar        1 UNL1     0.1007
     12 C         -5.70471   -0.060078   -1.193205 C.ar        1 UNL1     0.1389
     13 C         -4.413842   0.484848   -1.327918 C.ar        1 UNL1     0.0229
     14 C         -8.141659   -0.044418   -1.613192 C.2        1 UNL1     0.1740
     15 C         -8.127913   -1.471732   -1.150445 C.3        1 UNL1     0.0520
     16 C         -7.105257   -1.605284   -0.030491 C.3        1 UNL1     0.1322
     17 O         -5.786202   -1.242253   -0.494573 O.3        1 UNL1     -0.4828
     18 C         -7.528017   -0.92575   1.274205 C.ar        1 UNL1     -0.0067
     19 C         -8.00125   -1.71354   2.343621 C.ar        1 UNL1     -0.0516
     20 C         -8.440403   -1.120446   3.533304 C.ar        1 UNL1     -0.0198
     21 C         -8.418286   0.2567   3.66294 C.ar        1 UNL1     0.1169
     22 C         -7.92654   1.057233   2.640115 C.ar        1 UNL1     -0.0198
     23 C         -7.470082   0.463315   1.457337 C.ar        1 UNL1     -0.0516
     24 O         -8.889228   0.800649   4.821704 O.3        1 UNL1     -0.5068
     25 O         -9.189225   0.494364   -1.960762 O.2        1 UNL1     -0.2917
     26 O         -7.685614   2.574962   -2.784649 O.3        1 UNL1     -0.5058
     27 O         -2.50591   -0.366091   -0.369225 O.3        1 UNL1     -0.3648
     28 O         0.817406   -0.778042   -1.713863 O.3        1 UNL1     -0.3841
     29 O         -0.211912   2.437636   -0.509383 O.3        1 UNL1     -0.3863
     30 O         0.137124   1.195064   -3.949484 O.3        1 UNL1     -0.3829
     31 H         -1.468634   -1.554636   -1.589638 H        1 UNL1     0.0937
     32 H         0.0   0.0   0.0 H        1 UNL1     0.0671
     33 H         1.186661   1.608034   -1.709173 H        1 UNL1     0.0649
     34 H         -0.529929   2.91874   -3.057343 H        1 UNL1     0.0683
     35 H         -2.345016   1.53694   -3.957531 H        1 UNL1     0.1085
     36 H         -5.260561   3.347188   -2.95813 H        1 UNL1     0.0691
     37 H         -3.564531   -0.057286   -0.917729 H        1 UNL1     0.0691
     38 H         -7.857208   -2.095621   -2.008937 H        1 UNL1     0.0385
     39 H         -9.135605   -1.753852   -0.826804 H        1 UNL1     0.0385
     40 H         -7.026972   -2.674047   0.210624 H        1 UNL1     0.0789
     41 H         -8.037197   -2.796082   2.263233 H        1 UNL1     0.0623
     42 H         -8.814228   -1.738024   4.346239 H        1 UNL1     0.0654
     43 H         -7.890699   2.135781   2.736858 H        1 UNL1     0.0654
     44 H         -7.082641   1.118473   0.683061 H        1 UNL1     0.0623
     45 H         -8.541766   0.283759   5.56656 H        1 UNL1     0.2921
     46 H         -7.582345   2.697922   -3.741534 H        1 UNL1     0.2922
     47 H         -3.372508   -0.099644   -0.706675 H        1 UNL1     0.2126
     48 H         0.681957   -0.692232   -2.677202 H        1 UNL1     0.2101
     49 H         -1.164581   2.415722   -0.325712 H        1 UNL1     0.2100
     50 H         1.018525   1.616685   -4.02076 H        1 UNL1     0.2102
@<TRIPOS>BOND
     1     1     2    1
     2     1     6    1
     3     2     3    1
     4     3     4    1
     5     3    29    1
     6     3    33    1
     7     4     5    1
     8     5     6    1
     9     5     7    1
    10     5    35    1
    11     7     8    1
    12     8     9   ar
    13     8    13   ar
    14     9    10   ar
    15     9    36    1
    16    10    11   ar
    17    10    26    1
    18    11    12   ar
    19    11    14    1
    20    12    13   ar
    21    12    17    1
    22    13    37    1
    23    14    15    1
    24    14    25    2
    25    15    16    1
    26    15    38    1
    27    15    39    1
    28    16    17    1
    29    16    18    1
    30    16    40    1
    31    18    19   ar
    32    18    23   ar
    33    19    20   ar
    34    19    41    1
    35    20    21   ar
    36    20    42    1
    37    21    22   ar
    38    21    24    1
    39    22    23   ar
    40    22    43    1
    41    23    44    1
    42    24    45    1
    43    26    46    1
    44    27    47    1
    45    28    48    1
    46    29    49    1
    47    30    50    1
    48     1    31    1
    49     1    27    1
    50     2    32    1
    51     2    28    1
    52     4    34    1
    53     4    30    1
