@<TRIPOS>MOLECULE
*****
 50 53 0 0 0
SMALL
GASTEIGER

@<TRIPOS>ATOM
     1 C         -1.420324   -1.067137   -1.270709 C.3        1 UNL1     0.1889
     2 C         -1.040018   0.109109   -0.331693 C.3        1 UNL1     0.1342
     3 C         -1.9451   0.264776   0.899996 C.3        1 UNL1     0.1174
     4 C         -3.404013   -0.100062   0.614368 C.3        1 UNL1     0.1456
     5 C         -3.540689   -1.423985   -0.159526 C.3        1 UNL1     0.2326
     6 O         -2.807255   -1.351496   -1.380054 O.3        1 UNL1     -0.3076
     7 O         -3.216025   -2.584255   0.627677 O.3        1 UNL1     -0.4605
     8 C         -1.982528   -3.159214   0.379819 C.ar        1 UNL1     0.1310
     9 C         -1.552189   -3.6526   -0.856578 C.ar        1 UNL1     0.0226
     10 C         -0.274196   -4.202828   -1.01113 C.ar        1 UNL1     0.1343
     11 C         0.614024   -4.251342   0.06244 C.ar        1 UNL1     0.1007
     12 C         0.181045   -3.799273   1.311819 C.ar        1 UNL1     0.1389
     13 C         -1.104959   -3.248489   1.46758 C.ar        1 UNL1     0.0229
     14 C         2.004821   -4.744968   -0.06472 C.2        1 UNL1     0.1740
     15 C         2.885724   -4.518793   1.128764 C.3        1 UNL1     0.0520
     16 C         2.07085   -4.786409   2.386667 C.3        1 UNL1     0.1322
     17 O         0.933276   -3.898865   2.459206 O.3        1 UNL1     -0.4828
     18 C         1.736885   -6.264579   2.601618 C.ar        1 UNL1     -0.0067
     19 C         1.922784   -6.83834   3.876158 C.ar        1 UNL1     -0.0516
     20 C         1.672185   -8.198182   4.09523 C.ar        1 UNL1     -0.0198
     21 C         1.243349   -8.994686   3.048564 C.ar        1 UNL1     0.1169
     22 C         1.019042   -8.451585   1.790166 C.ar        1 UNL1     -0.0198
     23 C         1.251885   -7.087887   1.575298 C.ar        1 UNL1     -0.0516
     24 O         1.045884   -10.322404   3.290584 O.3        1 UNL1     -0.5068
     25 O         2.455926   -5.237297   -1.095545 O.2        1 UNL1     -0.2917
     26 O         0.083773   -4.66746   -2.243023 O.3        1 UNL1     -0.5058
     27 O         -0.661191   -2.243194   -1.039635 O.3        1 UNL1     -0.3648
     28 O         -1.121643   1.335696   -1.081046 O.3        1 UNL1     -0.3841
     29 O         -1.406173   -0.443548   2.018016 O.3        1 UNL1     -0.3863
     30 O         -4.013327   0.955445   -0.160442 O.3        1 UNL1     -0.3829
     31 H         -1.141027   -0.760799   -2.284725 H        1 UNL1     0.0937
     32 H         0.0   0.0   0.0 H        1 UNL1     0.0671
     33 H         -1.933842   1.323982   1.192701 H        1 UNL1     0.0649
     34 H         -3.962617   -0.171203   1.554209 H        1 UNL1     0.0683
     35 H         -4.603727   -1.464827   -0.428154 H        1 UNL1     0.1085
     36 H         -2.174893   -3.592673   -1.74245 H        1 UNL1     0.0691
     37 H         -1.418402   -2.904596   2.450934 H        1 UNL1     0.0691
     38 H         3.22942   -3.479454   1.094501 H        1 UNL1     0.0385
     39 H         3.762389   -5.171511   1.05667 H        1 UNL1     0.0385
     40 H         2.695999   -4.502095   3.243916 H        1 UNL1     0.0789
     41 H         2.26744   -6.236347   4.711901 H        1 UNL1     0.0623
     42 H         1.830706   -8.631373   5.079724 H        1 UNL1     0.0654
     43 H         0.668888   -9.063115   0.967163 H        1 UNL1     0.0654
     44 H         1.056026   -6.695009   0.582257 H        1 UNL1     0.0623
     45 H         1.755488   -10.636648   3.874048 H        1 UNL1     0.2921
     46 H         0.378571   -5.588819   -2.168166 H        1 UNL1     0.2922
     47 H         -0.831259   -2.581996   -0.149607 H        1 UNL1     0.2126
     48 H         -0.315727   1.38182   -1.630685 H        1 UNL1     0.2101
     49 H         -0.450816   -0.567447   1.900817 H        1 UNL1     0.2100
     50 H         -3.336564   1.307468   -0.775084 H        1 UNL1     0.2102
@<TRIPOS>BOND
     1     1     2    1
     2     1     6    1
     3     2     3    1
     4     3     4    1
     5     3    29    1
     6     3    33    1
     7     4     5    1
     8     5     6    1
     9     5     7    1
    10     5    35    1
    11     7     8    1
    12     8     9   ar
    13     8    13   ar
    14     9    10   ar
    15     9    36    1
    16    10    11   ar
    17    10    26    1
    18    11    12   ar
    19    11    14    1
    20    12    13   ar
    21    12    17    1
    22    13    37    1
    23    14    15    1
    24    14    25    2
    25    15    16    1
    26    15    38    1
    27    15    39    1
    28    16    17    1
    29    16    18    1
    30    16    40    1
    31    18    19   ar
    32    18    23   ar
    33    19    20   ar
    34    19    41    1
    35    20    21   ar
    36    20    42    1
    37    21    22   ar
    38    21    24    1
    39    22    23   ar
    40    22    43    1
    41    23    44    1
    42    24    45    1
    43    26    46    1
    44    27    47    1
    45    28    48    1
    46    29    49    1
    47    30    50    1
    48     1    31    1
    49     1    27    1
    50     2    32    1
    51     2    28    1
    52     4    34    1
    53     4    30    1
