@<TRIPOS>MOLECULE
*****
 50 53 0 0 0
SMALL
GASTEIGER

@<TRIPOS>ATOM
     1 C         -0.93133   -0.843513   -1.786593 C.3        1 UNL1     0.1889
     2 C         -0.969657   0.041142   -0.511502 C.3        1 UNL1     0.1342
     3 C         -2.079018   -0.321667   0.487574 C.3        1 UNL1     0.1174
     4 C         -3.359648   -0.805339   -0.197382 C.3        1 UNL1     0.1456
     5 C         -3.082897   -1.840796   -1.302643 C.3        1 UNL1     0.2326
     6 O         -2.188934   -1.293128   -2.268956 O.3        1 UNL1     -0.3076
     7 O         -2.655827   -3.118758   -0.796931 O.3        1 UNL1     -0.4605
     8 C         -2.027176   -3.103807   0.435181 C.ar        1 UNL1     0.1310
     9 C         -2.633021   -3.412672   1.657824 C.ar        1 UNL1     0.0226
     10 C         -1.905295   -3.385382   2.853472 C.ar        1 UNL1     0.1343
     11 C         -0.546895   -3.071395   2.852467 C.ar        1 UNL1     0.1007
     12 C         0.059421   -2.721226   1.643109 C.ar        1 UNL1     0.1389
     13 C         -0.673153   -2.74617   0.441384 C.ar        1 UNL1     0.0229
     14 C         0.289256   -3.109082   4.07459 C.2        1 UNL1     0.1740
     15 C         1.766458   -2.962898   3.855377 C.3        1 UNL1     0.0520
     16 C         1.992144   -1.905553   2.783442 C.3        1 UNL1     0.1322
     17 O         1.362214   -2.291391   1.541916 O.3        1 UNL1     -0.4828
     18 C         1.667815   -0.482333   3.243852 C.ar        1 UNL1     -0.0067
     19 C         2.011477   0.60785   2.418253 C.ar        1 UNL1     -0.0516
     20 C         1.772051   1.92429   2.830105 C.ar        1 UNL1     -0.0198
     21 C         1.197565   2.163481   4.065654 C.ar        1 UNL1     0.1169
     22 C         0.81751   1.109776   4.886692 C.ar        1 UNL1     -0.0198
     23 C         1.039946   -0.207259   4.467171 C.ar        1 UNL1     -0.0516
     24 O         1.014296   3.459585   4.448963 O.3        1 UNL1     -0.5068
     25 O         -0.162139   -3.325003   5.196243 O.2        1 UNL1     -0.2917
     26 O         -2.555603   -3.695856   4.012044 O.3        1 UNL1     -0.5058
     27 O         0.009976   -1.902362   -1.711974 O.3        1 UNL1     -0.3648
     28 O         -1.182941   1.407811   -0.910794 O.3        1 UNL1     -0.3841
     29 O         -1.596062   -1.240184   1.470025 O.3        1 UNL1     -0.3863
     30 O         -4.040808   0.326222   -0.781573 O.3        1 UNL1     -0.3829
     31 H         -0.558524   -0.207919   -2.597219 H        1 UNL1     0.0937
     32 H         0.0   0.0   0.0 H        1 UNL1     0.0671
     33 H         -2.340656   0.589429   1.043605 H        1 UNL1     0.0649
     34 H         -4.038853   -1.240529   0.54403 H        1 UNL1     0.0683
     35 H         -4.053519   -1.963281   -1.7994 H        1 UNL1     0.1085
     36 H         -3.671638   -3.718836   1.718303 H        1 UNL1     0.0691
     37 H         -0.178147   -2.468256   -0.486639 H        1 UNL1     0.0691
     38 H         2.151957   -3.937178   3.536482 H        1 UNL1     0.0385
     39 H         2.245799   -2.699338   4.804349 H        1 UNL1     0.0385
     40 H         3.066704   -1.899561   2.555834 H        1 UNL1     0.0789
     41 H         2.471916   0.446818   1.447833 H        1 UNL1     0.0623
     42 H         2.052447   2.756811   2.18956 H        1 UNL1     0.0654
     43 H         0.35316   1.285423   5.849727 H        1 UNL1     0.0654
     44 H         0.720827   -1.006285   5.129414 H        1 UNL1     0.0623
     45 H         1.606297   4.021541   3.923171 H        1 UNL1     0.2921
     46 H         -3.066282   -4.511448   3.887828 H        1 UNL1     0.2922
     47 H         -0.397593   -2.68541   -1.316269 H        1 UNL1     0.2126
     48 H         -2.050749   1.672574   -0.549487 H        1 UNL1     0.2101
     49 H         -2.341453   -1.616927   1.964242 H        1 UNL1     0.2100
     50 H         -3.845457   1.112763   -0.231204 H        1 UNL1     0.2102
@<TRIPOS>BOND
     1     1     2    1
     2     1     6    1
     3     2     3    1
     4     3     4    1
     5     3    29    1
     6     3    33    1
     7     4     5    1
     8     5     6    1
     9     5     7    1
    10     5    35    1
    11     7     8    1
    12     8     9   ar
    13     8    13   ar
    14     9    10   ar
    15     9    36    1
    16    10    11   ar
    17    10    26    1
    18    11    12   ar
    19    11    14    1
    20    12    13   ar
    21    12    17    1
    22    13    37    1
    23    14    15    1
    24    14    25    2
    25    15    16    1
    26    15    38    1
    27    15    39    1
    28    16    17    1
    29    16    18    1
    30    16    40    1
    31    18    19   ar
    32    18    23   ar
    33    19    20   ar
    34    19    41    1
    35    20    21   ar
    36    20    42    1
    37    21    22   ar
    38    21    24    1
    39    22    23   ar
    40    22    43    1
    41    23    44    1
    42    24    45    1
    43    26    46    1
    44    27    47    1
    45    28    48    1
    46    29    49    1
    47    30    50    1
    48     1    31    1
    49     1    27    1
    50     2    32    1
    51     2    28    1
    52     4    34    1
    53     4    30    1
