@<TRIPOS>MOLECULE
*****
 50 53 0 0 0
SMALL
GASTEIGER

@<TRIPOS>ATOM
     1 C         -0.316265   -1.375003   1.667378 C.3        1 UNL1     0.1889
     2 C         -0.459772   -0.980995   0.172686 C.3        1 UNL1     0.1342
     3 C         -1.905054   -0.95565   -0.347873 C.3        1 UNL1     0.1174
     4 C         -2.784663   -2.033774   0.290133 C.3        1 UNL1     0.1456
     5 C         -2.620137   -2.100995   1.819439 C.3        1 UNL1     0.2326
     6 O         -1.252119   -2.326858   2.151674 O.3        1 UNL1     -0.3076
     7 O         -3.190756   -0.973027   2.507481 O.3        1 UNL1     -0.4605
     8 C         -3.700017   -1.226333   3.76844 C.ar        1 UNL1     0.1310
     9 C         -4.513783   -2.311655   4.110728 C.ar        1 UNL1     0.0226
     10 C         -4.966475   -2.491218   5.423256 C.ar        1 UNL1     0.1343
     11 C         -4.596433   -1.601984   6.43131 C.ar        1 UNL1     0.1007
     12 C         -3.817923   -0.491767   6.093489 C.ar        1 UNL1     0.1389
     13 C         -3.365053   -0.309993   4.773149 C.ar        1 UNL1     0.0229
     14 C         -4.976815   -1.789912   7.850516 C.2        1 UNL1     0.1740
     15 C         -4.310228   -0.867996   8.828923 C.3        1 UNL1     0.0520
     16 C         -4.244231   0.522579   8.212561 C.3        1 UNL1     0.1322
     17 O         -3.485454   0.503157   6.983353 O.3        1 UNL1     -0.4828
     18 C         -5.60515   1.215039   8.10709 C.ar        1 UNL1     -0.0067
     19 C         -5.737414   2.362737   7.298692 C.ar        1 UNL1     -0.0516
     20 C         -6.95576   3.047559   7.217369 C.ar        1 UNL1     -0.0198
     21 C         -8.044806   2.600029   7.943677 C.ar        1 UNL1     0.1169
     22 C         -7.954886   1.453573   8.722389 C.ar        1 UNL1     -0.0198
     23 C         -6.74176   0.757954   8.789429 C.ar        1 UNL1     -0.0516
     24 O         -9.20432   3.31443   7.869122 O.3        1 UNL1     -0.5068
     25 O         -5.723481   -2.685003   8.237543 O.2        1 UNL1     -0.2917
     26 O         -5.758205   -3.569663   5.691035 O.3        1 UNL1     -0.5058
     27 O         -0.205067   -0.260163   2.537754 O.3        1 UNL1     -0.3648
     28 O         0.265324   -1.937179   -0.62271 O.3        1 UNL1     -0.3841
     29 O         -2.46319   0.354674   -0.230965 O.3        1 UNL1     -0.3863
     30 O         -2.44018   -3.319289   -0.270645 O.3        1 UNL1     -0.3829
     31 H         0.645898   -1.88973   1.764217 H        1 UNL1     0.0937
     32 H         0.0   0.0   0.0 H        1 UNL1     0.0671
     33 H         -1.876818   -1.16561   -1.426223 H        1 UNL1     0.0649
     34 H         -3.837092   -1.849782   0.047354 H        1 UNL1     0.0683
     35 H         -3.171333   -3.005628   2.105274 H        1 UNL1     0.1085
     36 H         -4.790319   -3.068318   3.384705 H        1 UNL1     0.0691
     37 H         -2.761098   0.563148   4.535755 H        1 UNL1     0.0691
     38 H         -3.306948   -1.261519   9.024102 H        1 UNL1     0.0385
     39 H         -4.870471   -0.877561   9.770101 H        1 UNL1     0.0385
     40 H         -3.650895   1.149799   8.891581 H        1 UNL1     0.0789
     41 H         -4.894931   2.739423   6.725995 H        1 UNL1     0.0623
     42 H         -7.04184   3.938188   6.599807 H        1 UNL1     0.0654
     43 H         -8.80568   1.085739   9.283423 H        1 UNL1     0.0654
     44 H         -6.710293   -0.139774   9.399297 H        1 UNL1     0.0623
     45 H         -9.051561   4.188949   8.262311 H        1 UNL1     0.2921
     46 H         -5.365083   -4.089007   6.410166 H        1 UNL1     0.2922
     47 H         0.52199   0.312791   2.256737 H        1 UNL1     0.2126
     48 H         1.211158   -1.81681   -0.41142 H        1 UNL1     0.2101
     49 H         -2.03647   0.952903   -0.864864 H        1 UNL1     0.2100
     50 H         -2.707324   -3.318444   -1.213166 H        1 UNL1     0.2102
@<TRIPOS>BOND
     1     1     2    1
     2     1     6    1
     3     2     3    1
     4     3     4    1
     5     3    29    1
     6     3    33    1
     7     4     5    1
     8     5     6    1
     9     5     7    1
    10     5    35    1
    11     7     8    1
    12     8     9   ar
    13     8    13   ar
    14     9    10   ar
    15     9    36    1
    16    10    11   ar
    17    10    26    1
    18    11    12   ar
    19    11    14    1
    20    12    13   ar
    21    12    17    1
    22    13    37    1
    23    14    15    1
    24    14    25    2
    25    15    16    1
    26    15    38    1
    27    15    39    1
    28    16    17    1
    29    16    18    1
    30    16    40    1
    31    18    19   ar
    32    18    23   ar
    33    19    20   ar
    34    19    41    1
    35    20    21   ar
    36    20    42    1
    37    21    22   ar
    38    21    24    1
    39    22    23   ar
    40    22    43    1
    41    23    44    1
    42    24    45    1
    43    26    46    1
    44    27    47    1
    45    28    48    1
    46    29    49    1
    47    30    50    1
    48     1    31    1
    49     1    27    1
    50     2    32    1
    51     2    28    1
    52     4    34    1
    53     4    30    1
