@<TRIPOS>MOLECULE
*****
 50 53 0 0 0
SMALL
GASTEIGER

@<TRIPOS>ATOM
     1 C         -0.418778   -1.391561   1.630641 C.3        1 UNL1     0.1889
     2 C         -0.506382   -0.962918   0.141167 C.3        1 UNL1     0.1342
     3 C         -1.93528   -0.863881   -0.414627 C.3        1 UNL1     0.1174
     4 C         -2.877194   -1.914266   0.179179 C.3        1 UNL1     0.1456
     5 C         -2.755251   -2.018093   1.710424 C.3        1 UNL1     0.2326
     6 O         -1.407398   -2.310386   2.071985 O.3        1 UNL1     -0.3076
     7 O         -3.293733   -0.87952   2.406851 O.3        1 UNL1     -0.4605
     8 C         -3.845901   -1.134354   3.649308 C.ar        1 UNL1     0.1310
     9 C         -4.943058   -1.967508   3.893034 C.ar        1 UNL1     0.0226
     10 C         -5.418903   -2.17588   5.193055 C.ar        1 UNL1     0.1343
     11 C         -4.793663   -1.57432   6.284403 C.ar        1 UNL1     0.1007
     12 C         -3.722728   -0.707815   6.049773 C.ar        1 UNL1     0.1389
     13 C         -3.246114   -0.496382   4.74227 C.ar        1 UNL1     0.0229
     14 C         -5.202167   -1.8258   7.685844 C.2        1 UNL1     0.1740
     15 C         -4.284308   -1.276589   8.738199 C.3        1 UNL1     0.0520
     16 C         -3.812316   0.101188   8.294453 C.3        1 UNL1     0.1322
     17 O         -3.102805   0.020297   7.038619 O.3        1 UNL1     -0.4828
     18 C         -4.906459   1.170651   8.337151 C.ar        1 UNL1     -0.0067
     19 C         -5.50591   1.499279   9.570389 C.ar        1 UNL1     -0.0516
     20 C         -6.541973   2.438421   9.637819 C.ar        1 UNL1     -0.0198
     21 C         -6.991554   3.049102   8.480766 C.ar        1 UNL1     0.1169
     22 C         -6.398623   2.771081   7.25603 C.ar        1 UNL1     -0.0198
     23 C         -5.350114   1.845641   7.190873 C.ar        1 UNL1     -0.0516
     24 O         -8.027841   3.930353   8.580294 O.3        1 UNL1     -0.5068
     25 O         -6.178353   -2.504397   7.994149 O.2        1 UNL1     -0.2917
     26 O         -6.493531   -2.999267   5.362744 O.3        1 UNL1     -0.5058
     27 O         -0.281593   -0.299663   2.526033 O.3        1 UNL1     -0.3648
     28 O         0.196634   -1.934647   -0.65521 O.3        1 UNL1     -0.3841
     29 O         -2.438619   0.467278   -0.285016 O.3        1 UNL1     -0.3863
     30 O         -2.574704   -3.202685   -0.398893 O.3        1 UNL1     -0.3829
     31 H         0.517224   -1.949965   1.740932 H        1 UNL1     0.0937
     32 H         0.0   0.0   0.0 H        1 UNL1     0.0671
     33 H         -1.888416   -1.05409   -1.495989 H        1 UNL1     0.0649
     34 H         -3.913994   -1.679428   -0.08596 H        1 UNL1     0.0683
     35 H         -3.352531   -2.902885   1.963958 H        1 UNL1     0.1085
     36 H         -5.437504   -2.507858   3.093243 H        1 UNL1     0.0691
     37 H         -2.411592   0.183838   4.586169 H        1 UNL1     0.0691
     38 H         -3.44204   -1.969595   8.837466 H        1 UNL1     0.0385
     39 H         -4.815036   -1.243886   9.69582 H        1 UNL1     0.0385
     40 H         -3.054261   0.431993   9.017254 H        1 UNL1     0.0789
     41 H         -5.177179   1.027112   10.491609 H        1 UNL1     0.0623
     42 H         -7.004172   2.674525   10.593141 H        1 UNL1     0.0654
     43 H         -6.732792   3.254699   6.34589 H        1 UNL1     0.0654
     44 H         -4.903008   1.660418   6.218951 H        1 UNL1     0.0623
     45 H         -8.494725   3.761772   9.41475 H        1 UNL1     0.2921
     46 H         -6.329178   -3.59584   6.110073 H        1 UNL1     0.2922
     47 H         -1.152553   0.029995   2.787973 H        1 UNL1     0.2126
     48 H         -0.350784   -2.095508   -1.447795 H        1 UNL1     0.2101
     49 H         -2.997972   0.5331   0.505291 H        1 UNL1     0.2100
     50 H         -2.058374   -3.714152   0.258006 H        1 UNL1     0.2102
@<TRIPOS>BOND
     1     1     2    1
     2     1     6    1
     3     2     3    1
     4     3     4    1
     5     3    29    1
     6     3    33    1
     7     4     5    1
     8     5     6    1
     9     5     7    1
    10     5    35    1
    11     7     8    1
    12     8     9   ar
    13     8    13   ar
    14     9    10   ar
    15     9    36    1
    16    10    11   ar
    17    10    26    1
    18    11    12   ar
    19    11    14    1
    20    12    13   ar
    21    12    17    1
    22    13    37    1
    23    14    15    1
    24    14    25    2
    25    15    16    1
    26    15    38    1
    27    15    39    1
    28    16    17    1
    29    16    18    1
    30    16    40    1
    31    18    19   ar
    32    18    23   ar
    33    19    20   ar
    34    19    41    1
    35    20    21   ar
    36    20    42    1
    37    21    22   ar
    38    21    24    1
    39    22    23   ar
    40    22    43    1
    41    23    44    1
    42    24    45    1
    43    26    46    1
    44    27    47    1
    45    28    48    1
    46    29    49    1
    47    30    50    1
    48     1    31    1
    49     1    27    1
    50     2    32    1
    51     2    28    1
    52     4    34    1
    53     4    30    1
