@<TRIPOS>MOLECULE
*****
 50 53 0 0 0
SMALL
GASTEIGER

@<TRIPOS>ATOM
     1 C         -0.174115   -1.240877   1.789054 C.3        1 UNL1     0.1889
     2 C         -0.37378   -0.995681   0.269201 C.3        1 UNL1     0.1342
     3 C         -1.824306   -1.134917   -0.217682 C.3        1 UNL1     0.1174
     4 C         -2.600896   -2.219399   0.533266 C.3        1 UNL1     0.1456
     5 C         -2.406908   -2.135399   2.058283 C.3        1 UNL1     0.2326
     6 O         -1.019707   -2.218403   2.377111 O.3        1 UNL1     -0.3076
     7 O         -3.05827   -1.000407   2.657317 O.3        1 UNL1     -0.4605
     8 C         -3.297544   -1.08667   4.017036 C.ar        1 UNL1     0.1310
     9 C         -3.832732   -2.198279   4.676734 C.ar        1 UNL1     0.0226
     10 C         -4.022038   -2.194815   6.063836 C.ar        1 UNL1     0.1343
     11 C         -3.658212   -1.087363   6.828703 C.ar        1 UNL1     0.1007
     12 C         -3.160982   0.043963   6.176286 C.ar        1 UNL1     0.1389
     13 C         -2.973197   0.04121   4.781238 C.ar        1 UNL1     0.0229
     14 C         -3.758271   -1.06121   8.306356 C.2        1 UNL1     0.1740
     15 C         -3.117813   0.116891   8.979736 C.3        1 UNL1     0.0520
     16 C         -3.408231   1.36141   8.152217 C.3        1 UNL1     0.1322
     17 O         -2.872305   1.226264   6.817455 O.3        1 UNL1     -0.4828
     18 C         -4.870667   1.809837   8.206217 C.ar        1 UNL1     -0.0067
     19 C         -5.548587   2.107292   7.00615 C.ar        1 UNL1     -0.0516
     20 C         -6.87141   2.565353   7.022954 C.ar        1 UNL1     -0.0198
     21 C         -7.52341   2.736748   8.230988 C.ar        1 UNL1     0.1169
     22 C         -6.893536   2.420425   9.427665 C.ar        1 UNL1     -0.0198
     23 C         -5.576905   1.944787   9.410132 C.ar        1 UNL1     -0.0516
     24 O         -8.798463   3.220691   8.209976 O.3        1 UNL1     -0.5068
     25 O         -4.255565   -1.969703   8.966526 O.2        1 UNL1     -0.2917
     26 O         -4.549427   -3.310389   6.646022 O.3        1 UNL1     -0.5058
     27 O         -0.142102   -0.047044   2.554902 O.3        1 UNL1     -0.3648
     28 O         0.415502   -1.95722   -0.455494 O.3        1 UNL1     -0.3841
     29 O         -2.487531   0.130813   -0.203772 O.3        1 UNL1     -0.3863
     30 O         -2.159719   -3.517755   0.080136 O.3        1 UNL1     -0.3829
     31 H         0.828944   -1.664792   1.908414 H        1 UNL1     0.0937
     32 H         0.0   0.0   0.0 H        1 UNL1     0.0671
     33 H         -1.795961   -1.437868   -1.273682 H        1 UNL1     0.0649
     34 H         -3.668728   -2.144235   0.299844 H        1 UNL1     0.0683
     35 H         -2.876324   -3.052561   2.435562 H        1 UNL1     0.1085
     36 H         -4.08338   -3.110218   4.146014 H        1 UNL1     0.0691
     37 H         -2.585528   0.935001   4.297147 H        1 UNL1     0.0691
     38 H         -2.041527   -0.078165   9.035309 H        1 UNL1     0.0385
     39 H         -3.50362   0.199756   10.00153 H        1 UNL1     0.0385
     40 H         -2.834743   2.186393   8.596103 H        1 UNL1     0.0789
     41 H         -5.055755   1.989781   6.045443 H        1 UNL1     0.0623
     42 H         -7.379389   2.802669   6.091477 H        1 UNL1     0.0654
     43 H         -7.399907   2.536609   10.378454 H        1 UNL1     0.0654
     44 H         -5.119216   1.697463   10.363125 H        1 UNL1     0.0623
     45 H         -8.785262   4.102201   7.80318 H        1 UNL1     0.2921
     46 H         -3.943929   -3.634685   7.331307 H        1 UNL1     0.2922
     47 H         0.544236   0.547019   2.220404 H        1 UNL1     0.2126
     48 H         1.3468   -1.797573   -0.208653 H        1 UNL1     0.2101
     49 H         -2.116309   0.705482   -0.892062 H        1 UNL1     0.2100
     50 H         -2.416177   -3.611935   -0.860647 H        1 UNL1     0.2102
@<TRIPOS>BOND
     1     1     2    1
     2     1     6    1
     3     2     3    1
     4     3     4    1
     5     3    29    1
     6     3    33    1
     7     4     5    1
     8     5     6    1
     9     5     7    1
    10     5    35    1
    11     7     8    1
    12     8     9   ar
    13     8    13   ar
    14     9    10   ar
    15     9    36    1
    16    10    11   ar
    17    10    26    1
    18    11    12   ar
    19    11    14    1
    20    12    13   ar
    21    12    17    1
    22    13    37    1
    23    14    15    1
    24    14    25    2
    25    15    16    1
    26    15    38    1
    27    15    39    1
    28    16    17    1
    29    16    18    1
    30    16    40    1
    31    18    19   ar
    32    18    23   ar
    33    19    20   ar
    34    19    41    1
    35    20    21   ar
    36    20    42    1
    37    21    22   ar
    38    21    24    1
    39    22    23   ar
    40    22    43    1
    41    23    44    1
    42    24    45    1
    43    26    46    1
    44    27    47    1
    45    28    48    1
    46    29    49    1
    47    30    50    1
    48     1    31    1
    49     1    27    1
    50     2    32    1
    51     2    28    1
    52     4    34    1
    53     4    30    1
