@<TRIPOS>MOLECULE
*****
 50 53 0 0 0
SMALL
GASTEIGER

@<TRIPOS>ATOM
     1 C         -0.091909   -1.961402   0.956691 C.3        1 UNL1     0.1889
     2 C         -0.688361   -0.563038   0.642425 C.3        1 UNL1     0.1342
     3 C         -1.024673   0.283454   1.879684 C.3        1 UNL1     0.1174
     4 C         -1.520247   -0.558565   3.058041 C.3        1 UNL1     0.1456
     5 C         -0.642419   -1.798456   3.307947 C.3        1 UNL1     0.2326
     6 O         -0.581825   -2.596889   2.128243 O.3        1 UNL1     -0.3076
     7 O         0.655028   -1.483361   3.845224 O.3        1 UNL1     -0.4605
     8 C         1.271108   -0.360411   3.322771 C.ar        1 UNL1     0.1310
     9 C         2.18341   -0.356175   2.262117 C.ar        1 UNL1     0.0226
     10 C         2.741648   0.838671   1.792418 C.ar        1 UNL1     0.1343
     11 C         2.382588   2.06186   2.356973 C.ar        1 UNL1     0.1007
     12 C         1.503892   2.066638   3.443552 C.ar        1 UNL1     0.1389
     13 C         0.944752   0.864851   3.917368 C.ar        1 UNL1     0.0229
     14 C         2.877216   3.361038   1.84547 C.2        1 UNL1     0.1740
     15 C         2.218662   4.579395   2.422931 C.3        1 UNL1     0.0520
     16 C         2.008451   4.352574   3.913676 C.3        1 UNL1     0.1322
     17 O         1.166057   3.201646   4.143475 O.3        1 UNL1     -0.4828
     18 C         3.304868   4.362398   4.727267 C.ar        1 UNL1     -0.0067
     19 C         3.479072   5.32698   5.740898 C.ar        1 UNL1     -0.0516
     20 C         4.671379   5.39386   6.471578 C.ar        1 UNL1     -0.0198
     21 C         5.697493   4.50855   6.193831 C.ar        1 UNL1     0.1169
     22 C         5.543183   3.526034   5.224455 C.ar        1 UNL1     -0.0198
     23 C         4.344008   3.447118   4.506256 C.ar        1 UNL1     -0.0516
     24 O         6.858202   4.628231   6.90011 O.3        1 UNL1     -0.5068
     25 O         3.712333   3.461605   0.950511 O.2        1 UNL1     -0.2917
     26 O         3.626142   0.774023   0.755559 O.3        1 UNL1     -0.5058
     27 O         1.324945   -1.99875   0.894119 O.3        1 UNL1     -0.3648
     28 O         -1.909889   -0.744044   -0.097718 O.3        1 UNL1     -0.3841
     29 O         0.072061   1.130958   2.227596 O.3        1 UNL1     -0.3863
     30 O         -2.872266   -0.99259   2.794684 O.3        1 UNL1     -0.3829
     31 H         -0.415128   -2.627928   0.149628 H        1 UNL1     0.0937
     32 H         0.0   0.0   0.0 H        1 UNL1     0.0671
     33 H         -1.844164   0.963456   1.60811 H        1 UNL1     0.0649
     34 H         -1.550965   0.052017   3.967243 H        1 UNL1     0.0683
     35 H         -1.204109   -2.374169   4.05423 H        1 UNL1     0.1085
     36 H         2.460338   -1.268066   1.744539 H        1 UNL1     0.0691
     37 H         0.264009   0.895446   4.765392 H        1 UNL1     0.0691
     38 H         1.263026   4.715931   1.905588 H        1 UNL1     0.0385
     39 H         2.844793   5.455304   2.22163 H        1 UNL1     0.0385
     40 H         1.422278   5.201521   4.290783 H        1 UNL1     0.0789
     41 H         2.692148   6.039073   5.971821 H        1 UNL1     0.0623
     42 H         4.798106   6.14983   7.242591 H        1 UNL1     0.0654
     43 H         6.334641   2.8181   5.009203 H        1 UNL1     0.0654
     44 H         4.253954   2.660333   3.763488 H        1 UNL1     0.0623
     45 H         7.183244   5.538086   6.804037 H        1 UNL1     0.2921
     46 H         4.065634   -0.090991   0.758686 H        1 UNL1     0.2922
     47 H         1.634436   -1.596452   0.070572 H        1 UNL1     0.2126
     48 H         -1.90577   -0.077582   -0.811541 H        1 UNL1     0.2101
     49 H         0.587266   0.726692   2.943786 H        1 UNL1     0.2100
     50 H         -2.834097   -1.711771   2.13058 H        1 UNL1     0.2102
@<TRIPOS>BOND
     1     1     2    1
     2     1     6    1
     3     2     3    1
     4     3     4    1
     5     3    29    1
     6     3    33    1
     7     4     5    1
     8     5     6    1
     9     5     7    1
    10     5    35    1
    11     7     8    1
    12     8     9   ar
    13     8    13   ar
    14     9    10   ar
    15     9    36    1
    16    10    11   ar
    17    10    26    1
    18    11    12   ar
    19    11    14    1
    20    12    13   ar
    21    12    17    1
    22    13    37    1
    23    14    15    1
    24    14    25    2
    25    15    16    1
    26    15    38    1
    27    15    39    1
    28    16    17    1
    29    16    18    1
    30    16    40    1
    31    18    19   ar
    32    18    23   ar
    33    19    20   ar
    34    19    41    1
    35    20    21   ar
    36    20    42    1
    37    21    22   ar
    38    21    24    1
    39    22    23   ar
    40    22    43    1
    41    23    44    1
    42    24    45    1
    43    26    46    1
    44    27    47    1
    45    28    48    1
    46    29    49    1
    47    30    50    1
    48     1    31    1
    49     1    27    1
    50     2    32    1
    51     2    28    1
    52     4    34    1
    53     4    30    1
