@<TRIPOS>MOLECULE
*****
 50 53 0 0 0
SMALL
GASTEIGER

@<TRIPOS>ATOM
     1 C         -0.370952   -1.397455   1.637168 C.3        1 UNL1     0.1889
     2 C         -0.487956   -0.971212   0.149026 C.3        1 UNL1     0.1342
     3 C         -1.926448   -0.89653   -0.385417 C.3        1 UNL1     0.1174
     4 C         -2.841605   -1.962254   0.222725 C.3        1 UNL1     0.1456
     5 C         -2.69511   -2.063126   1.752015 C.3        1 UNL1     0.2326
     6 O         -1.33729   -2.332511   2.093519 O.3        1 UNL1     -0.3076
     7 O         -3.242215   -0.93336   2.456022 O.3        1 UNL1     -0.4605
     8 C         -3.771428   -1.196717   3.706664 C.ar        1 UNL1     0.1310
     9 C         -4.620623   -2.263799   4.018921 C.ar        1 UNL1     0.0226
     10 C         -5.09161   -2.456205   5.323166 C.ar        1 UNL1     0.1343
     11 C         -4.705311   -1.599077   6.352703 C.ar        1 UNL1     0.1007
     12 C         -3.890656   -0.506148   6.045091 C.ar        1 UNL1     0.1389
     13 C         -3.419347   -0.31138   4.733084 C.ar        1 UNL1     0.0229
     14 C         -5.105343   -1.804175   7.764107 C.2        1 UNL1     0.1740
     15 C         -4.421373   -0.922698   8.767468 C.3        1 UNL1     0.0520
     16 C         -4.307715   0.477455   8.180434 C.3        1 UNL1     0.1322
     17 O         -3.537571   0.460121   6.958285 O.3        1 UNL1     -0.4828
     18 C         -5.646229   1.212493   8.076394 C.ar        1 UNL1     -0.0067
     19 C         -5.892917   2.323249   8.909209 C.ar        1 UNL1     -0.0516
     20 C         -7.124063   2.988783   8.873065 C.ar        1 UNL1     -0.0198
     21 C         -8.11703   2.549759   8.015684 C.ar        1 UNL1     0.1169
     22 C         -7.892265   1.479602   7.159482 C.ar        1 UNL1     -0.0198
     23 C         -6.654715   0.825378   7.182251 C.ar        1 UNL1     -0.0516
     24 O         -9.316289   3.199217   8.035277 O.3        1 UNL1     -0.5068
     25 O         -5.88224   -2.684072   8.125628 O.2        1 UNL1     -0.2917
     26 O         -5.917828   -3.515568   5.561281 O.3        1 UNL1     -0.5058
     27 O         -0.238809   -0.302885   2.530052 O.3        1 UNL1     -0.3648
     28 O         0.219345   -1.93145   -0.657432 O.3        1 UNL1     -0.3841
     29 O         -2.450111   0.426055   -0.24875 O.3        1 UNL1     -0.3863
     30 O         -2.526147   -3.245742   -0.35937 O.3        1 UNL1     -0.3829
     31 H         0.575848   -1.939982   1.733665 H        1 UNL1     0.0937
     32 H         0.0   0.0   0.0 H        1 UNL1     0.0671
     33 H         -1.892525   -1.086553   -1.467296 H        1 UNL1     0.0649
     34 H         -3.886046   -1.74503   -0.026991 H        1 UNL1     0.0683
     35 H         -3.273579   -2.957684   2.014725 H        1 UNL1     0.1085
     36 H         -4.912333   -2.99696   3.274945 H        1 UNL1     0.0691
     37 H         -2.787245   0.547842   4.519362 H        1 UNL1     0.0691
     38 H         -3.432296   -1.350065   8.963963 H        1 UNL1     0.0385
     39 H         -4.991059   -0.93447   9.702934 H        1 UNL1     0.0385
     40 H         -3.702757   1.072689   8.877744 H        1 UNL1     0.0789
     41 H         -5.133   2.681677   9.597471 H        1 UNL1     0.0623
     42 H         -7.306347   3.836671   9.52871 H        1 UNL1     0.0654
     43 H         -8.657635   1.136953   6.473399 H        1 UNL1     0.0654
     44 H         -6.51   -0.000266   6.492167 H        1 UNL1     0.0623
     45 H         -9.342806   3.816938   7.286656 H        1 UNL1     0.2921
     46 H         -5.704827   -3.90437   6.424343 H        1 UNL1     0.2922
     47 H         0.630554   0.109091   2.42835 H        1 UNL1     0.2126
     48 H         0.053594   -1.690359   -1.589169 H        1 UNL1     0.2101
     49 H         -2.998644   0.482926   0.549794 H        1 UNL1     0.2100
     50 H         -1.991549   -3.748075   0.28992 H        1 UNL1     0.2102
@<TRIPOS>BOND
     1     1     2    1
     2     1     6    1
     3     2     3    1
     4     3     4    1
     5     3    29    1
     6     3    33    1
     7     4     5    1
     8     5     6    1
     9     5     7    1
    10     5    35    1
    11     7     8    1
    12     8     9   ar
    13     8    13   ar
    14     9    10   ar
    15     9    36    1
    16    10    11   ar
    17    10    26    1
    18    11    12   ar
    19    11    14    1
    20    12    13   ar
    21    12    17    1
    22    13    37    1
    23    14    15    1
    24    14    25    2
    25    15    16    1
    26    15    38    1
    27    15    39    1
    28    16    17    1
    29    16    18    1
    30    16    40    1
    31    18    19   ar
    32    18    23   ar
    33    19    20   ar
    34    19    41    1
    35    20    21   ar
    36    20    42    1
    37    21    22   ar
    38    21    24    1
    39    22    23   ar
    40    22    43    1
    41    23    44    1
    42    24    45    1
    43    26    46    1
    44    27    47    1
    45    28    48    1
    46    29    49    1
    47    30    50    1
    48     1    31    1
    49     1    27    1
    50     2    32    1
    51     2    28    1
    52     4    34    1
    53     4    30    1
