@<TRIPOS>MOLECULE
*****
 50 53 0 0 0
SMALL
GASTEIGER

@<TRIPOS>ATOM
     1 C         -0.330678   -1.327365   1.702809 C.3        1 UNL1     0.1889
     2 C         -0.461839   -0.975526   0.196507 C.3        1 UNL1     0.1342
     3 C         -1.902854   -0.964162   -0.336232 C.3        1 UNL1     0.1174
     4 C         -2.788341   -2.023479   0.324734 C.3        1 UNL1     0.1456
     5 C         -2.636212   -2.047696   1.856607 C.3        1 UNL1     0.2326
     6 O         -1.271078   -2.264765   2.206122 O.3        1 UNL1     -0.3076
     7 O         -3.211574   -0.900534   2.507987 O.3        1 UNL1     -0.4605
     8 C         -3.720564   -1.115378   3.776175 C.ar        1 UNL1     0.1310
     9 C         -4.536011   -2.188631   4.150972 C.ar        1 UNL1     0.0226
     10 C         -4.988276   -2.328331   5.468486 C.ar        1 UNL1     0.1343
     11 C         -4.616132   -1.410188   6.449486 C.ar        1 UNL1     0.1007
     12 C         -3.835894   -0.311856   6.078433 C.ar        1 UNL1     0.1389
     13 C         -3.383453   -0.170179   4.753045 C.ar        1 UNL1     0.0229
     14 C         -4.996041   -1.555206   7.873843 C.2        1 UNL1     0.1740
     15 C         -4.327312   -0.605793   8.824088 C.3        1 UNL1     0.0520
     16 C         -4.259259   0.76574   8.16665 C.3        1 UNL1     0.1322
     17 O         -3.501207   0.708484   6.938176 O.3        1 UNL1     -0.4828
     18 C         -5.619038   1.457132   8.041347 C.ar        1 UNL1     -0.0067
     19 C         -5.999088   2.018761   6.805083 C.ar        1 UNL1     -0.0516
     20 C         -7.214889   2.699352   6.668745 C.ar        1 UNL1     -0.0198
     21 C         -8.054171   2.831216   7.760553 C.ar        1 UNL1     0.1169
     22 C         -7.722906   2.260156   8.982434 C.ar        1 UNL1     -0.0198
     23 C         -6.51564   1.563605   9.11427 C.ar        1 UNL1     -0.0516
     24 O         -9.212426   3.533301   7.59955 O.3        1 UNL1     -0.5068
     25 O         -5.744034   -2.4371   8.287673 O.2        1 UNL1     -0.2917
     26 O         -5.781717   -3.396962   5.768591 O.3        1 UNL1     -0.5058
     27 O         -0.225727   -0.188516   2.54233 O.3        1 UNL1     -0.3648
     28 O         0.268983   -1.954068   -0.565768 O.3        1 UNL1     -0.3841
     29 O         -2.460996   0.349199   -0.260773 O.3        1 UNL1     -0.3863
     30 O         -2.440244   -3.324436   -0.196832 O.3        1 UNL1     -0.3829
     31 H         0.63031   -1.839618   1.821878 H        1 UNL1     0.0937
     32 H         0.0   0.0   0.0 H        1 UNL1     0.0671
     33 H         -1.866062   -1.204412   -1.407981 H        1 UNL1     0.0649
     34 H         -3.838646   -1.845897   0.068367 H        1 UNL1     0.0683
     35 H         -3.190331   -2.943662   2.163325 H        1 UNL1     0.1085
     36 H         -4.814262   -2.966046   3.447891 H        1 UNL1     0.0691
     37 H         -2.778123   0.694469   4.489506 H        1 UNL1     0.0691
     38 H         -3.324604   -0.995093   9.030361 H        1 UNL1     0.0385
     39 H         -4.887042   -0.586415   9.76542 H        1 UNL1     0.0385
     40 H         -3.664459   1.41182   8.826433 H        1 UNL1     0.0789
     41 H         -5.353672   1.93681   5.935386 H        1 UNL1     0.0623
     42 H         -7.491246   3.138317   5.713263 H        1 UNL1     0.0654
     43 H         -8.379732   2.344467   9.839978 H        1 UNL1     0.0654
     44 H         -6.293708   1.12113   10.080607 H        1 UNL1     0.0623
     45 H         -8.987142   4.440806   7.338016 H        1 UNL1     0.2921
     46 H         -5.377155   -3.908696   6.486832 H        1 UNL1     0.2922
     47 H         0.516852   0.365447   2.263831 H        1 UNL1     0.2126
     48 H         1.201959   -1.887532   -0.284944 H        1 UNL1     0.2101
     49 H         -2.022667   0.931376   -0.901656 H        1 UNL1     0.2100
     50 H         -2.673805   -3.340259   -1.1481 H        1 UNL1     0.2102
@<TRIPOS>BOND
     1     1     2    1
     2     1     6    1
     3     2     3    1
     4     3     4    1
     5     3    29    1
     6     3    33    1
     7     4     5    1
     8     5     6    1
     9     5     7    1
    10     5    35    1
    11     7     8    1
    12     8     9   ar
    13     8    13   ar
    14     9    10   ar
    15     9    36    1
    16    10    11   ar
    17    10    26    1
    18    11    12   ar
    19    11    14    1
    20    12    13   ar
    21    12    17    1
    22    13    37    1
    23    14    15    1
    24    14    25    2
    25    15    16    1
    26    15    38    1
    27    15    39    1
    28    16    17    1
    29    16    18    1
    30    16    40    1
    31    18    19   ar
    32    18    23   ar
    33    19    20   ar
    34    19    41    1
    35    20    21   ar
    36    20    42    1
    37    21    22   ar
    38    21    24    1
    39    22    23   ar
    40    22    43    1
    41    23    44    1
    42    24    45    1
    43    26    46    1
    44    27    47    1
    45    28    48    1
    46    29    49    1
    47    30    50    1
    48     1    31    1
    49     1    27    1
    50     2    32    1
    51     2    28    1
    52     4    34    1
    53     4    30    1
