@<TRIPOS>MOLECULE
*****
 50 53 0 0 0
SMALL
GASTEIGER

@<TRIPOS>ATOM
     1 C         -0.907653   1.65216   -1.10333 C.3        1 UNL1     0.1889
     2 C         -0.381897   1.007346   0.207294 C.3        1 UNL1     0.1342
     3 C         -1.414579   0.928058   1.342084 C.3        1 UNL1     0.1174
     4 C         -2.371473   2.122716   1.358293 C.3        1 UNL1     0.1456
     5 C         -2.928994   2.451359   -0.038678 C.3        1 UNL1     0.2326
     6 O         -1.855953   2.697143   -0.944792 O.3        1 UNL1     -0.3076
     7 O         -3.868157   1.475358   -0.525213 O.3        1 UNL1     -0.4605
     8 C         -4.886785   1.960572   -1.325521 C.ar        1 UNL1     0.1310
     9 C         -6.255096   1.804713   -1.079084 C.ar        1 UNL1     0.0226
     10 C         -7.212705   2.349448   -1.942885 C.ar        1 UNL1     0.1343
     11 C         -6.824811   3.084353   -3.062392 C.ar        1 UNL1     0.1007
     12 C         -5.461457   3.211863   -3.3413 C.ar        1 UNL1     0.1389
     13 C         -4.498804   2.661789   -2.474035 C.ar        1 UNL1     0.0229
     14 C         -7.793289   3.752648   -3.962162 C.2        1 UNL1     0.1740
     15 C         -7.199533   4.680765   -4.980791 C.3        1 UNL1     0.0520
     16 C         -5.929515   4.045111   -5.529386 C.3        1 UNL1     0.1322
     17 O         -4.970329   3.821247   -4.472543 O.3        1 UNL1     -0.4828
     18 C         -6.185423   2.828369   -6.422008 C.ar        1 UNL1     -0.0067
     19 C         -6.042424   1.532711   -5.884388 C.ar        1 UNL1     -0.0516
     20 C         -6.222712   0.398731   -6.685355 C.ar        1 UNL1     -0.0198
     21 C         -6.538264   0.546809   -8.024134 C.ar        1 UNL1     0.1169
     22 C         -6.718642   1.809082   -8.57456 C.ar        1 UNL1     -0.0198
     23 C         -6.556533   2.942901   -7.769432 C.ar        1 UNL1     -0.0516
     24 O         -6.668954   -0.579742   -8.781896 O.3        1 UNL1     -0.5068
     25 O         -9.010888   3.635488   -3.851668 O.2        1 UNL1     -0.2917
     26 O         -8.531054   2.16065   -1.646415 O.3        1 UNL1     -0.5058
     27 O         -1.330192   0.703692   -2.070106 O.3        1 UNL1     -0.3648
     28 O         0.724977   1.79164   0.689393 O.3        1 UNL1     -0.3841
     29 O         -2.096953   -0.327333   1.319882 O.3        1 UNL1     -0.3863
     30 O         -1.673785   3.281684   1.863974 O.3        1 UNL1     -0.3829
     31 H         -0.052248   2.151479   -1.571347 H        1 UNL1     0.0937
     32 H         0.0   -0.0   0.0 H        1 UNL1     0.0671
     33 H         -0.867622   0.946025   2.295098 H        1 UNL1     0.0649
     34 H         -3.203986   1.925792   2.042795 H        1 UNL1     0.0683
     35 H         -3.451791   3.405566   0.102921 H        1 UNL1     0.1085
     36 H         -6.620694   1.292177   -0.19604 H        1 UNL1     0.0691
     37 H         -3.44371   2.774074   -2.714165 H        1 UNL1     0.0691
     38 H         -6.98118   5.628746   -4.477621 H        1 UNL1     0.0385
     39 H         -7.938975   4.872569   -5.765784 H        1 UNL1     0.0385
     40 H         -5.451106   4.788394   -6.18144 H        1 UNL1     0.0789
     41 H         -5.786165   1.389927   -4.838637 H        1 UNL1     0.0623
     42 H         -6.097992   -0.594824   -6.26191 H        1 UNL1     0.0654
     43 H         -6.980569   1.936154   -9.618187 H        1 UNL1     0.0654
     44 H         -6.715487   3.913184   -8.230008 H        1 UNL1     0.0623
     45 H         -5.927324   -0.616305   -9.407488 H        1 UNL1     0.2921
     46 H         -8.633586   1.343037   -1.134158 H        1 UNL1     0.2922
     47 H         -2.264936   0.835132   -2.281852 H        1 UNL1     0.2126
     48 H         0.420985   2.231857   1.506418 H        1 UNL1     0.2101
     49 H         -2.983905   -0.214212   0.942637 H        1 UNL1     0.2100
     50 H         -1.862243   4.032697   1.263828 H        1 UNL1     0.2102
@<TRIPOS>BOND
     1     1     2    1
     2     1     6    1
     3     2     3    1
     4     3     4    1
     5     3    29    1
     6     3    33    1
     7     4     5    1
     8     5     6    1
     9     5     7    1
    10     5    35    1
    11     7     8    1
    12     8     9   ar
    13     8    13   ar
    14     9    10   ar
    15     9    36    1
    16    10    11   ar
    17    10    26    1
    18    11    12   ar
    19    11    14    1
    20    12    13   ar
    21    12    17    1
    22    13    37    1
    23    14    15    1
    24    14    25    2
    25    15    16    1
    26    15    38    1
    27    15    39    1
    28    16    17    1
    29    16    18    1
    30    16    40    1
    31    18    19   ar
    32    18    23   ar
    33    19    20   ar
    34    19    41    1
    35    20    21   ar
    36    20    42    1
    37    21    22   ar
    38    21    24    1
    39    22    23   ar
    40    22    43    1
    41    23    44    1
    42    24    45    1
    43    26    46    1
    44    27    47    1
    45    28    48    1
    46    29    49    1
    47    30    50    1
    48     1    31    1
    49     1    27    1
    50     2    32    1
    51     2    28    1
    52     4    34    1
    53     4    30    1
