@<TRIPOS>MOLECULE
*****
 50 53 0 0 0
SMALL
GASTEIGER

@<TRIPOS>ATOM
     1 C         -1.44268   -1.320915   0.971938 C.3        1 UNL1     0.1889
     2 C         -0.874902   -0.599735   -0.280048 C.3        1 UNL1     0.1342
     3 C         -1.88253   0.297017   -1.015566 C.3        1 UNL1     0.1174
     4 C         -3.307641   -0.260759   -0.982995 C.3        1 UNL1     0.1456
     5 C         -3.724988   -0.732156   0.421986 C.3        1 UNL1     0.2326
     6 O         -2.805751   -1.712185   0.898864 O.3        1 UNL1     -0.3076
     7 O         -3.933252   0.347552   1.350521 O.3        1 UNL1     -0.4605
     8 C         -4.891332   0.132816   2.324943 C.ar        1 UNL1     0.1310
     9 C         -6.164688   -0.403426   2.105142 C.ar        1 UNL1     0.0226
     10 C         -7.060254   -0.598752   3.163306 C.ar        1 UNL1     0.1343
     11 C         -6.695034   -0.284398   4.471601 C.ar        1 UNL1     0.1007
     12 C         -5.441386   0.289907   4.698149 C.ar        1 UNL1     0.1389
     13 C         -4.542072   0.488661   3.633648 C.ar        1 UNL1     0.0229
     14 C         -7.569996   -0.548061   5.637396 C.2        1 UNL1     0.1740
     15 C         -6.933992   -0.35689   6.982945 C.3        1 UNL1     0.0520
     16 C         -6.054154   0.884409   6.927988 C.3        1 UNL1     0.1322
     17 O         -5.020771   0.73667   5.929308 O.3        1 UNL1     -0.4828
     18 C         -6.841211   2.194018   6.837495 C.ar        1 UNL1     -0.0067
     19 C         -6.481802   3.152404   5.867683 C.ar        1 UNL1     -0.0516
     20 C         -7.150026   4.380098   5.78889 C.ar        1 UNL1     -0.0198
     21 C         -8.172173   4.66375   6.676912 C.ar        1 UNL1     0.1169
     22 C         -8.571173   3.726865   7.621308 C.ar        1 UNL1     -0.0198
     23 C         -7.915373   2.491758   7.688331 C.ar        1 UNL1     -0.0516
     24 O         -8.774652   5.884659   6.594439 O.3        1 UNL1     -0.5068
     25 O         -8.717986   -0.973339   5.538686 O.2        1 UNL1     -0.2917
     26 O         -8.287287   -1.124694   2.881597 O.3        1 UNL1     -0.5058
     27 O         -1.154449   -0.6516   2.1892 O.3        1 UNL1     -0.3648
     28 O         -0.42575   -1.596912   -1.21632 O.3        1 UNL1     -0.3841
     29 O         -1.803981   1.64283   -0.541487 O.3        1 UNL1     -0.3863
     30 O         -3.400129   -1.377719   -1.893784 O.3        1 UNL1     -0.3829
     31 H         -0.907059   -2.272967   1.054319 H        1 UNL1     0.0937
     32 H         0.0   0.0   0.0 H        1 UNL1     0.0671
     33 H         -1.582862   0.341836   -2.071932 H        1 UNL1     0.0649
     34 H         -4.01467   0.498831   -1.334468 H        1 UNL1     0.0683
     35 H         -4.680522   -1.245224   0.255867 H        1 UNL1     0.1085
     36 H         -6.487747   -0.719935   1.119458 H        1 UNL1     0.0691
     37 H         -3.572508   0.938533   3.836268 H        1 UNL1     0.0691
     38 H         -6.341077   -1.251998   7.199187 H        1 UNL1     0.0385
     39 H         -7.718876   -0.274771   7.742544 H        1 UNL1     0.0385
     40 H         -5.509788   0.937761   7.880531 H        1 UNL1     0.0789
     41 H         -5.676825   2.957441   5.16508 H        1 UNL1     0.0623
     42 H         -6.855689   5.115654   5.044353 H        1 UNL1     0.0654
     43 H         -9.380362   3.932715   8.311779 H        1 UNL1     0.0654
     44 H         -8.26025   1.779356   8.43156 H        1 UNL1     0.0623
     45 H         -8.103377   6.568966   6.748807 H        1 UNL1     0.2921
     46 H         -8.422999   -1.92888   3.40722 H        1 UNL1     0.2922
     47 H         -0.200189   -0.523286   2.282918 H        1 UNL1     0.2126
     48 H         0.280952   -2.101734   -0.769711 H        1 UNL1     0.2101
     49 H         -0.96428   2.042143   -0.819417 H        1 UNL1     0.2100
     50 H         -3.269968   -1.036954   -2.802987 H        1 UNL1     0.2102
@<TRIPOS>BOND
     1     1     2    1
     2     1     6    1
     3     2     3    1
     4     3     4    1
     5     3    29    1
     6     3    33    1
     7     4     5    1
     8     5     6    1
     9     5     7    1
    10     5    35    1
    11     7     8    1
    12     8     9   ar
    13     8    13   ar
    14     9    10   ar
    15     9    36    1
    16    10    11   ar
    17    10    26    1
    18    11    12   ar
    19    11    14    1
    20    12    13   ar
    21    12    17    1
    22    13    37    1
    23    14    15    1
    24    14    25    2
    25    15    16    1
    26    15    38    1
    27    15    39    1
    28    16    17    1
    29    16    18    1
    30    16    40    1
    31    18    19   ar
    32    18    23   ar
    33    19    20   ar
    34    19    41    1
    35    20    21   ar
    36    20    42    1
    37    21    22   ar
    38    21    24    1
    39    22    23   ar
    40    22    43    1
    41    23    44    1
    42    24    45    1
    43    26    46    1
    44    27    47    1
    45    28    48    1
    46    29    49    1
    47    30    50    1
    48     1    31    1
    49     1    27    1
    50     2    32    1
    51     2    28    1
    52     4    34    1
    53     4    30    1
