@<TRIPOS>MOLECULE
*****
 50 53 0 0 0
SMALL
GASTEIGER

@<TRIPOS>ATOM
     1 C         -0.370261   -1.397389   1.63738 C.3        1 UNL1     0.1889
     2 C         -0.488087   -0.971101   0.149316 C.3        1 UNL1     0.1342
     3 C         -1.926892   -0.896081   -0.384237 C.3        1 UNL1     0.1174
     4 C         -2.841919   -1.961602   0.224458 C.3        1 UNL1     0.1456
     5 C         -2.694501   -2.062526   1.753656 C.3        1 UNL1     0.2326
     6 O         -1.336532   -2.332228   2.094318 O.3        1 UNL1     -0.3076
     7 O         -3.240911   -0.932644   2.458016 O.3        1 UNL1     -0.4605
     8 C         -3.769411   -1.195894   3.708981 C.ar        1 UNL1     0.1310
     9 C         -4.613093   -2.266746   4.023268 C.ar        1 UNL1     0.0226
     10 C         -5.083776   -2.458611   5.327702 C.ar        1 UNL1     0.1343
     11 C         -4.702611   -1.597043   6.355444 C.ar        1 UNL1     0.1007
     12 C         -3.893608   -0.500516   6.045725 C.ar        1 UNL1     0.1389
     13 C         -3.422612   -0.306306   4.733522 C.ar        1 UNL1     0.0229
     14 C         -5.102332   -1.800973   7.767107 C.2        1 UNL1     0.1740
     15 C         -4.423615   -0.913534   8.768778 C.3        1 UNL1     0.0520
     16 C         -4.317077   0.485831   8.178537 C.3        1 UNL1     0.1322
     17 O         -3.546173   0.469743   6.956851 O.3        1 UNL1     -0.4828
     18 C         -5.659423   1.213496   8.072055 C.ar        1 UNL1     -0.0067
     19 C         -5.681513   2.576964   7.713335 C.ar        1 UNL1     -0.0516
     20 C         -6.888105   3.284395   7.653007 C.ar        1 UNL1     -0.0198
     21 C         -8.075948   2.643062   7.955575 C.ar        1 UNL1     0.1169
     22 C         -8.08994   1.292635   8.279598 C.ar        1 UNL1     -0.0198
     23 C         -6.885404   0.580351   8.322037 C.ar        1 UNL1     -0.0516
     24 O         -9.227153   3.373859   7.922961 O.3        1 UNL1     -0.5068
     25 O         -5.87474   -2.684144   8.130259 O.2        1 UNL1     -0.2917
     26 O         -5.904481   -3.521795   5.567842 O.3        1 UNL1     -0.5058
     27 O         -0.237314   -0.302861   2.530196 O.3        1 UNL1     -0.3648
     28 O         0.218494   -1.931492   -0.657591 O.3        1 UNL1     -0.3841
     29 O         -2.450166   0.426622   -0.24723 O.3        1 UNL1     -0.3863
     30 O         -2.527117   -3.245155   -0.357847 O.3        1 UNL1     -0.3829
     31 H         0.576473   -1.940136   1.733285 H        1 UNL1     0.0937
     32 H         0.0   0.0   0.0 H        1 UNL1     0.0671
     33 H         -1.893683   -1.086099   -1.466138 H        1 UNL1     0.0649
     34 H         -3.886464   -1.744135   -0.024608 H        1 UNL1     0.0683
     35 H         -3.273014   -2.956955   2.016714 H        1 UNL1     0.1085
     36 H         -4.900487   -3.003181   3.280847 H        1 UNL1     0.0691
     37 H         -2.794968   0.555765   4.518138 H        1 UNL1     0.0691
     38 H         -3.432389   -1.335175   8.966808 H        1 UNL1     0.0385
     39 H         -4.993751   -0.926153   9.70396 H        1 UNL1     0.0385
     40 H         -3.715679   1.085898   8.874785 H        1 UNL1     0.0789
     41 H         -4.761723   3.105417   7.480149 H        1 UNL1     0.0623
     42 H         -6.890812   4.338472   7.386688 H        1 UNL1     0.0654
     43 H         -9.016045   0.776856   8.503677 H        1 UNL1     0.0654
     44 H         -6.934613   -0.475895   8.56855 H        1 UNL1     0.0623
     45 H         -9.183266   4.046588   8.621693 H        1 UNL1     0.2921
     46 H         -5.632524   -3.961447   6.388913 H        1 UNL1     0.2922
     47 H         0.507879   0.255148   2.267186 H        1 UNL1     0.2126
     48 H         1.170805   -1.779867   -0.503174 H        1 UNL1     0.2101
     49 H         -2.143718   0.980585   -0.982763 H        1 UNL1     0.2100
     50 H         -2.784754   -3.218959   -1.302648 H        1 UNL1     0.2102
@<TRIPOS>BOND
     1     1     2    1
     2     1     6    1
     3     2     3    1
     4     3     4    1
     5     3    29    1
     6     3    33    1
     7     4     5    1
     8     5     6    1
     9     5     7    1
    10     5    35    1
    11     7     8    1
    12     8     9   ar
    13     8    13   ar
    14     9    10   ar
    15     9    36    1
    16    10    11   ar
    17    10    26    1
    18    11    12   ar
    19    11    14    1
    20    12    13   ar
    21    12    17    1
    22    13    37    1
    23    14    15    1
    24    14    25    2
    25    15    16    1
    26    15    38    1
    27    15    39    1
    28    16    17    1
    29    16    18    1
    30    16    40    1
    31    18    19   ar
    32    18    23   ar
    33    19    20   ar
    34    19    41    1
    35    20    21   ar
    36    20    42    1
    37    21    22   ar
    38    21    24    1
    39    22    23   ar
    40    22    43    1
    41    23    44    1
    42    24    45    1
    43    26    46    1
    44    27    47    1
    45    28    48    1
    46    29    49    1
    47    30    50    1
    48     1    31    1
    49     1    27    1
    50     2    32    1
    51     2    28    1
    52     4    34    1
    53     4    30    1
