@<TRIPOS>MOLECULE
*****
 50 53 0 0 0
SMALL
GASTEIGER

@<TRIPOS>ATOM
     1 C         0.665797   -1.976496   0.648831 C.3        1 UNL1     0.1889
     2 C         -0.248571   -1.050179   -0.197223 C.3        1 UNL1     0.1342
     3 C         -1.754392   -1.258967   0.024987 C.3        1 UNL1     0.1174
     4 C         -2.117176   -2.721138   0.296208 C.3        1 UNL1     0.1456
     5 C         -1.185643   -3.378201   1.33104 C.3        1 UNL1     0.2326
     6 O         0.168599   -3.283586   0.895214 O.3        1 UNL1     -0.3076
     7 O         -1.384092   -2.892187   2.671088 O.3        1 UNL1     -0.4605
     8 C         -1.145539   -3.800375   3.686871 C.ar        1 UNL1     0.1310
     9 C         -1.598206   -5.12389   3.713387 C.ar        1 UNL1     0.0226
     10 C         -1.28878   -5.973337   4.78231 C.ar        1 UNL1     0.1343
     11 C         -0.498391   -5.526451   5.840336 C.ar        1 UNL1     0.1007
     12 C         -0.074819   -4.19478   5.84496 C.ar        1 UNL1     0.1389
     13 C         -0.388294   -3.3401   4.771327 C.ar        1 UNL1     0.0229
     14 C         -0.071289   -6.405246   6.953646 C.2        1 UNL1     0.1740
     15 C         0.954231   -5.824569   7.882446 C.3        1 UNL1     0.0520
     16 C         0.610052   -4.361672   8.126231 C.3        1 UNL1     0.1322
     17 O         0.615942   -3.620017   6.88648 O.3        1 UNL1     -0.4828
     18 C         -0.642786   -4.157692   8.981517 C.ar        1 UNL1     -0.0067
     19 C         -1.635172   -3.253027   8.551443 C.ar        1 UNL1     -0.0516
     20 C         -2.770643   -3.007584   9.332741 C.ar        1 UNL1     -0.0198
     21 C         -2.921511   -3.653495   10.54677 C.ar        1 UNL1     0.1169
     22 C         -1.977802   -4.575001   10.981601 C.ar        1 UNL1     -0.0198
     23 C         -0.851285   -4.834454   10.191854 C.ar        1 UNL1     -0.0516
     24 O         -4.02172   -3.360811   11.297954 O.3        1 UNL1     -0.5068
     25 O         -0.454287   -7.564808   7.084843 O.2        1 UNL1     -0.2917
     26 O         -1.761943   -7.252603   4.747945 O.3        1 UNL1     -0.5058
     27 O         1.145249   -1.366042   1.836374 O.3        1 UNL1     -0.3648
     28 O         0.017005   -1.29631   -1.590635 O.3        1 UNL1     -0.3841
     29 O         -2.246448   -0.370946   1.030687 O.3        1 UNL1     -0.3863
     30 O         -2.037729   -3.465842   -0.938617 O.3        1 UNL1     -0.3829
     31 H         1.568149   -2.15378   0.053508 H        1 UNL1     0.0937
     32 H         0.0   0.0   0.0 H        1 UNL1     0.0671
     33 H         -2.273156   -0.969023   -0.899424 H        1 UNL1     0.0649
     34 H         -3.152997   -2.790696   0.646403 H        1 UNL1     0.0683
     35 H         -1.458562   -4.440348   1.295855 H        1 UNL1     0.1085
     36 H         -2.169405   -5.547682   2.894697 H        1 UNL1     0.0691
     37 H         -0.047492   -2.307357   4.799423 H        1 UNL1     0.0691
     38 H         1.932449   -5.925108   7.400255 H        1 UNL1     0.0385
     39 H         0.96876   -6.40667   8.8102 H        1 UNL1     0.0385
     40 H         1.433766   -3.928171   8.709404 H        1 UNL1     0.0789
     41 H         -1.535665   -2.726541   7.606689 H        1 UNL1     0.0623
     42 H         -3.523038   -2.298804   8.995779 H        1 UNL1     0.0654
     43 H         -2.093471   -5.097662   11.923597 H        1 UNL1     0.0654
     44 H         -0.139451   -5.568255   10.557469 H        1 UNL1     0.0623
     45 H         -4.001239   -2.414966   11.516298 H        1 UNL1     0.2921
     46 H         -1.02038   -7.873917   4.821874 H        1 UNL1     0.2922
     47 H         1.604447   -0.540782   1.626749 H        1 UNL1     0.2126
     48 H         0.950612   -1.054502   -1.744385 H        1 UNL1     0.2101
     49 H         -2.233531   0.541452   0.700296 H        1 UNL1     0.2100
     50 H         -2.736947   -3.131557   -1.537834 H        1 UNL1     0.2102
@<TRIPOS>BOND
     1     1     2    1
     2     1     6    1
     3     2     3    1
     4     3     4    1
     5     3    29    1
     6     3    33    1
     7     4     5    1
     8     5     6    1
     9     5     7    1
    10     5    35    1
    11     7     8    1
    12     8     9   ar
    13     8    13   ar
    14     9    10   ar
    15     9    36    1
    16    10    11   ar
    17    10    26    1
    18    11    12   ar
    19    11    14    1
    20    12    13   ar
    21    12    17    1
    22    13    37    1
    23    14    15    1
    24    14    25    2
    25    15    16    1
    26    15    38    1
    27    15    39    1
    28    16    17    1
    29    16    18    1
    30    16    40    1
    31    18    19   ar
    32    18    23   ar
    33    19    20   ar
    34    19    41    1
    35    20    21   ar
    36    20    42    1
    37    21    22   ar
    38    21    24    1
    39    22    23   ar
    40    22    43    1
    41    23    44    1
    42    24    45    1
    43    26    46    1
    44    27    47    1
    45    28    48    1
    46    29    49    1
    47    30    50    1
    48     1    31    1
    49     1    27    1
    50     2    32    1
    51     2    28    1
    52     4    34    1
    53     4    30    1
