@<TRIPOS>MOLECULE
*****
 50 53 0 0 0
SMALL
GASTEIGER

@<TRIPOS>ATOM
     1 C         -0.160986   0.911152   1.978557 C.3        1 UNL1     0.1889
     2 C         0.353279   -0.196308   1.019911 C.3        1 UNL1     0.1342
     3 C         -0.04216   -1.625791   1.420753 C.3        1 UNL1     0.1174
     4 C         -0.082849   -1.827063   2.937642 C.3        1 UNL1     0.1456
     5 C         -0.828702   -0.69268   3.663756 C.3        1 UNL1     0.2326
     6 O         -0.226315   0.561771   3.353352 O.3        1 UNL1     -0.3076
     7 O         -2.250672   -0.707819   3.442185 O.3        1 UNL1     -0.4605
     8 C         -3.031446   -0.238668   4.48325 C.ar        1 UNL1     0.1310
     9 C         -2.873681   -0.578123   5.831278 C.ar        1 UNL1     0.0226
     10 C         -3.706826   -0.035136   6.816639 C.ar        1 UNL1     0.1343
     11 C         -4.70367   0.879763   6.48033 C.ar        1 UNL1     0.1007
     12 C         -4.897449   1.195022   5.132797 C.ar        1 UNL1     0.1389
     13 C         -4.061304   0.646885   4.141919 C.ar        1 UNL1     0.0229
     14 C         -5.557279   1.547968   7.489789 C.2        1 UNL1     0.1740
     15 C         -6.419617   2.662952   6.975267 C.3        1 UNL1     0.0520
     16 C         -6.982085   2.25165   5.621599 C.3        1 UNL1     0.1322
     17 O         -5.916846   1.999419   4.678882 O.3        1 UNL1     -0.4828
     18 C         -8.03346   1.142242   5.702534 C.ar        1 UNL1     -0.0067
     19 C         -7.928988   0.025439   4.848105 C.ar        1 UNL1     -0.0516
     20 C         -8.899144   -0.983785   4.863198 C.ar        1 UNL1     -0.0198
     21 C         -9.979972   -0.884473   5.720971 C.ar        1 UNL1     0.1169
     22 C         -10.093003   0.186541   6.597893 C.ar        1 UNL1     -0.0198
     23 C         -9.113326   1.186683   6.596016 C.ar        1 UNL1     -0.0516
     24 O         -10.924561   -1.867602   5.680862 O.3        1 UNL1     -0.5068
     25 O         -5.521943   1.281452   8.688207 O.2        1 UNL1     -0.2917
     26 O         -3.501247   -0.408026   8.112893 O.3        1 UNL1     -0.5058
     27 O         -1.35971   1.528717   1.537578 O.3        1 UNL1     -0.3648
     28 O         1.791642   -0.142099   0.990279 O.3        1 UNL1     -0.3841
     29 O         -1.257822   -2.014686   0.778056 O.3        1 UNL1     -0.3863
     30 O         1.268358   -1.892186   3.443299 O.3        1 UNL1     -0.3829
     31 H         0.581838   1.71594   1.953904 H        1 UNL1     0.0937
     32 H         0.0   0.0   0.0 H        1 UNL1     0.0671
     33 H         0.725632   -2.308147   1.030107 H        1 UNL1     0.0649
     34 H         -0.560487   -2.784041   3.175245 H        1 UNL1     0.0683
     35 H         -0.634091   -0.885762   4.72617 H        1 UNL1     0.1085
     36 H         -2.081761   -1.240337   6.16363 H        1 UNL1     0.0691
     37 H         -4.233599   0.907464   3.099851 H        1 UNL1     0.0691
     38 H         -5.790049   3.554784   6.886905 H        1 UNL1     0.0385
     39 H         -7.208918   2.872414   7.705273 H        1 UNL1     0.0385
     40 H         -7.510355   3.123329   5.212177 H        1 UNL1     0.0789
     41 H         -7.094947   -0.071317   4.159145 H        1 UNL1     0.0623
     42 H         -8.813627   -1.83407   4.191102 H        1 UNL1     0.0654
     43 H         -10.927431   0.266652   7.284349 H        1 UNL1     0.0654
     44 H         -9.22791   2.003684   7.301867 H        1 UNL1     0.0623
     45 H         -11.306432   -1.889788   4.78845 H        1 UNL1     0.2921
     46 H         -3.346743   0.38107   8.655911 H        1 UNL1     0.2922
     47 H         -1.243551   1.887105   0.646554 H        1 UNL1     0.2126
     48 H         2.031253   0.739413   0.644946 H        1 UNL1     0.2101
     49 H         -1.106991   -2.12505   -0.174238 H        1 UNL1     0.2100
     50 H         1.687544   -2.69978   3.080273 H        1 UNL1     0.2102
@<TRIPOS>BOND
     1     1     2    1
     2     1     6    1
     3     2     3    1
     4     3     4    1
     5     3    29    1
     6     3    33    1
     7     4     5    1
     8     5     6    1
     9     5     7    1
    10     5    35    1
    11     7     8    1
    12     8     9   ar
    13     8    13   ar
    14     9    10   ar
    15     9    36    1
    16    10    11   ar
    17    10    26    1
    18    11    12   ar
    19    11    14    1
    20    12    13   ar
    21    12    17    1
    22    13    37    1
    23    14    15    1
    24    14    25    2
    25    15    16    1
    26    15    38    1
    27    15    39    1
    28    16    17    1
    29    16    18    1
    30    16    40    1
    31    18    19   ar
    32    18    23   ar
    33    19    20   ar
    34    19    41    1
    35    20    21   ar
    36    20    42    1
    37    21    22   ar
    38    21    24    1
    39    22    23   ar
    40    22    43    1
    41    23    44    1
    42    24    45    1
    43    26    46    1
    44    27    47    1
    45    28    48    1
    46    29    49    1
    47    30    50    1
    48     1    31    1
    49     1    27    1
    50     2    32    1
    51     2    28    1
    52     4    34    1
    53     4    30    1
