@<TRIPOS>MOLECULE
*****
 50 53 0 0 0
SMALL
GASTEIGER

@<TRIPOS>ATOM
     1 C         -1.534652   -0.57931   1.442237 C.3        1 UNL1     0.1889
     2 C         -0.669293   0.4878   0.719486 C.3        1 UNL1     0.1342
     3 C         0.163363   1.378532   1.654229 C.3        1 UNL1     0.1174
     4 C         -0.54594   1.67658   2.977548 C.3        1 UNL1     0.1456
     5 C         -1.158231   0.416434   3.615901 C.3        1 UNL1     0.2326
     6 O         -2.064643   -0.199162   2.703582 O.3        1 UNL1     -0.3076
     7 O         -0.176013   -0.495725   4.13986 O.3        1 UNL1     -0.4605
     8 C         0.72312   0.036662   5.046311 C.ar        1 UNL1     0.1310
     9 C         1.631314   1.066294   4.77735 C.ar        1 UNL1     0.0226
     10 C         2.49195   1.549859   5.77001 C.ar        1 UNL1     0.1343
     11 C         2.448676   1.031226   7.06345 C.ar        1 UNL1     0.1007
     12 C         1.574621   -0.025171   7.333332 C.ar        1 UNL1     0.1389
     13 C         0.711212   -0.51301   6.334348 C.ar        1 UNL1     0.0229
     14 C         3.27601   1.56152   8.171809 C.2        1 UNL1     0.1740
     15 C         2.942023   1.039761   9.538472 C.3        1 UNL1     0.0520
     16 C         2.643215   -0.448878   9.4261 C.3        1 UNL1     0.1322
     17 O         1.525598   -0.682166   8.540901 O.3        1 UNL1     -0.4828
     18 C         3.877166   -1.304307   9.128897 C.ar        1 UNL1     -0.0067
     19 C         4.95898   -0.737967   8.423806 C.ar        1 UNL1     -0.0516
     20 C         6.082347   -1.505688   8.094243 C.ar        1 UNL1     -0.0198
     21 C         6.132706   -2.839787   8.456836 C.ar        1 UNL1     0.1169
     22 C         5.097728   -3.41719   9.180896 C.ar        1 UNL1     -0.0198
     23 C         3.98237   -2.64487   9.526662 C.ar        1 UNL1     -0.0516
     24 O         7.226142   -3.565708   8.085574 O.3        1 UNL1     -0.5068
     25 O         4.13057   2.430802   8.021605 O.2        1 UNL1     -0.2917
     26 O         3.354833   2.554749   5.442574 O.3        1 UNL1     -0.5058
     27 O         -0.926275   -1.859921   1.494202 O.3        1 UNL1     -0.3648
     28 O         -1.543111   1.352306   -0.030032 O.3        1 UNL1     -0.3841
     29 O         1.472702   0.836313   1.837981 O.3        1 UNL1     -0.3863
     30 O         -1.598835   2.637273   2.7448 O.3        1 UNL1     -0.3829
     31 H         -2.42673   -0.729445   0.824389 H        1 UNL1     0.0937
     32 H         0.0   0.0   0.0 H        1 UNL1     0.0671
     33 H         0.31519   2.343465   1.150667 H        1 UNL1     0.0649
     34 H         0.155892   2.134846   3.683116 H        1 UNL1     0.0683
     35 H         -1.758382   0.806194   4.447637 H        1 UNL1     0.1085
     36 H         1.674903   1.549242   3.807307 H        1 UNL1     0.0691
     37 H         0.040888   -1.336909   6.569613 H        1 UNL1     0.0691
     38 H         2.067694   1.591962   9.899236 H        1 UNL1     0.0385
     39 H         3.778784   1.244188   10.215095 H        1 UNL1     0.0385
     40 H         2.288226   -0.782987   10.410414 H        1 UNL1     0.0789
     41 H         4.939671   0.304573   8.119852 H        1 UNL1     0.0623
     42 H         6.904917   -1.060588   7.539917 H        1 UNL1     0.0654
     43 H         5.133558   -4.457078   9.482991 H        1 UNL1     0.0654
     44 H         3.196981   -3.125672   10.101848 H        1 UNL1     0.0623
     45 H         7.96698   -2.954091   7.944855 H        1 UNL1     0.2921
     46 H         3.767119   2.360853   4.585932 H        1 UNL1     0.2922
     47 H         -0.388225   -1.942785   2.293887 H        1 UNL1     0.2126
     48 H         -1.723306   0.901354   -0.877324 H        1 UNL1     0.2101
     49 H         1.824415   1.108211   2.70063 H        1 UNL1     0.2100
     50 H         -1.322925   3.212868   2.001646 H        1 UNL1     0.2102
@<TRIPOS>BOND
     1     1     2    1
     2     1     6    1
     3     2     3    1
     4     3     4    1
     5     3    29    1
     6     3    33    1
     7     4     5    1
     8     5     6    1
     9     5     7    1
    10     5    35    1
    11     7     8    1
    12     8     9   ar
    13     8    13   ar
    14     9    10   ar
    15     9    36    1
    16    10    11   ar
    17    10    26    1
    18    11    12   ar
    19    11    14    1
    20    12    13   ar
    21    12    17    1
    22    13    37    1
    23    14    15    1
    24    14    25    2
    25    15    16    1
    26    15    38    1
    27    15    39    1
    28    16    17    1
    29    16    18    1
    30    16    40    1
    31    18    19   ar
    32    18    23   ar
    33    19    20   ar
    34    19    41    1
    35    20    21   ar
    36    20    42    1
    37    21    22   ar
    38    21    24    1
    39    22    23   ar
    40    22    43    1
    41    23    44    1
    42    24    45    1
    43    26    46    1
    44    27    47    1
    45    28    48    1
    46    29    49    1
    47    30    50    1
    48     1    31    1
    49     1    27    1
    50     2    32    1
    51     2    28    1
    52     4    34    1
    53     4    30    1
