@<TRIPOS>MOLECULE
*****
 50 53 0 0 0
SMALL
GASTEIGER

@<TRIPOS>ATOM
     1 C         -0.3358   -1.331456   1.698608 C.3        1 UNL1     0.1889
     2 C         -0.464504   -0.974922   0.193198 C.3        1 UNL1     0.1342
     3 C         -1.90493   -0.958372   -0.340996 C.3        1 UNL1     0.1174
     4 C         -2.793775   -2.01736   0.315978 C.3        1 UNL1     0.1456
     5 C         -2.643303   -2.046402   1.847931 C.3        1 UNL1     0.2326
     6 O         -1.279086   -2.267931   2.198226 O.3        1 UNL1     -0.3076
     7 O         -3.216446   -0.899682   2.502042 O.3        1 UNL1     -0.4605
     8 C         -3.727722   -1.117019   3.768884 C.ar        1 UNL1     0.1310
     9 C         -4.546565   -2.189205   4.139309 C.ar        1 UNL1     0.0226
     10 C         -5.00098   -2.331702   5.455783 C.ar        1 UNL1     0.1343
     11 C         -4.627683   -1.417565   6.440081 C.ar        1 UNL1     0.1007
     12 C         -3.843987   -0.320217   6.07343 C.ar        1 UNL1     0.1389
     13 C         -3.389379   -0.17572   4.749088 C.ar        1 UNL1     0.0229
     14 C         -5.0099   -1.565902   7.863479 C.2        1 UNL1     0.1740
     15 C         -4.339895   -0.621202   8.817514 C.3        1 UNL1     0.0520
     16 C         -4.267257   0.752141   8.16436 C.3        1 UNL1     0.1322
     17 O         -3.507707   0.696587   6.936733 O.3        1 UNL1     -0.4828
     18 C         -5.624996   1.447583   8.03935 C.ar        1 UNL1     -0.0067
     19 C         -6.00068   2.016455   6.805064 C.ar        1 UNL1     -0.0516
     20 C         -7.214442   2.70079   6.669306 C.ar        1 UNL1     -0.0198
     21 C         -8.056001   2.829204   7.759772 C.ar        1 UNL1     0.1169
     22 C         -7.729091   2.251097   8.97951 C.ar        1 UNL1     -0.0198
     23 C         -6.523892   1.550847   9.110665 C.ar        1 UNL1     -0.0516
     24 O         -9.212105   3.535014   7.599595 O.3        1 UNL1     -0.5068
     25 O         -5.760826   -2.44703   8.27361 O.2        1 UNL1     -0.2917
     26 O         -5.797704   -3.399097   5.75156 O.3        1 UNL1     -0.5058
     27 O         -0.228849   -0.195314   2.541538 O.3        1 UNL1     -0.3648
     28 O         0.26464   -1.953093   -0.571156 O.3        1 UNL1     -0.3841
     29 O         -2.459834   0.35617   -0.262304 O.3        1 UNL1     -0.3863
     30 O         -2.44842   -3.317675   -0.209 O.3        1 UNL1     -0.3829
     31 H         0.623768   -1.846478   1.817184 H        1 UNL1     0.0937
     32 H         0.0   0.0   0.0 H        1 UNL1     0.0671
     33 H         -1.867629   -1.195606   -1.413399 H        1 UNL1     0.0649
     34 H         -3.843362   -1.836382   0.059042 H        1 UNL1     0.0683
     35 H         -3.200001   -2.94185   2.151475 H        1 UNL1     0.1085
     36 H         -4.825965   -2.963716   3.433484 H        1 UNL1     0.0691
     37 H         -2.781366   0.688091   4.489003 H        1 UNL1     0.0691
     38 H         -3.338519   -1.013837   9.023939 H        1 UNL1     0.0385
     39 H         -4.900838   -0.603185   9.75815 H        1 UNL1     0.0385
     40 H         -3.671606   1.394596   8.82691 H        1 UNL1     0.0789
     41 H         -5.353393   1.937311   5.936499 H        1 UNL1     0.0623
     42 H         -7.487413   3.14531   5.715419 H        1 UNL1     0.0654
     43 H         -8.387753   2.332693   9.835907 H        1 UNL1     0.0654
     44 H         -6.305381   1.1029   10.075259 H        1 UNL1     0.0623
     45 H         -8.983773   4.444752   7.348681 H        1 UNL1     0.2921
     46 H         -5.396182   -3.913334   6.469718 H        1 UNL1     0.2922
     47 H         0.513725   0.358995   2.263717 H        1 UNL1     0.2126
     48 H         1.20026   -1.878028   -0.301506 H        1 UNL1     0.2101
     49 H         -2.019489   0.939051   -0.901162 H        1 UNL1     0.2100
     50 H         -2.681029   -3.330151   -1.160551 H        1 UNL1     0.2102
@<TRIPOS>BOND
     1     1     2    1
     2     1     6    1
     3     2     3    1
     4     3     4    1
     5     3    29    1
     6     3    33    1
     7     4     5    1
     8     5     6    1
     9     5     7    1
    10     5    35    1
    11     7     8    1
    12     8     9   ar
    13     8    13   ar
    14     9    10   ar
    15     9    36    1
    16    10    11   ar
    17    10    26    1
    18    11    12   ar
    19    11    14    1
    20    12    13   ar
    21    12    17    1
    22    13    37    1
    23    14    15    1
    24    14    25    2
    25    15    16    1
    26    15    38    1
    27    15    39    1
    28    16    17    1
    29    16    18    1
    30    16    40    1
    31    18    19   ar
    32    18    23   ar
    33    19    20   ar
    34    19    41    1
    35    20    21   ar
    36    20    42    1
    37    21    22   ar
    38    21    24    1
    39    22    23   ar
    40    22    43    1
    41    23    44    1
    42    24    45    1
    43    26    46    1
    44    27    47    1
    45    28    48    1
    46    29    49    1
    47    30    50    1
    48     1    31    1
    49     1    27    1
    50     2    32    1
    51     2    28    1
    52     4    34    1
    53     4    30    1
