@<TRIPOS>MOLECULE
*****
 50 53 0 0 0
SMALL
GASTEIGER

@<TRIPOS>ATOM
     1 C         -0.350015   -1.339022   1.689768 C.3        1 UNL1     0.1889
     2 C         -0.470405   -0.973525   0.18582 C.3        1 UNL1     0.1342
     3 C         -1.908423   -0.946485   -0.3544 C.3        1 UNL1     0.1174
     4 C         -2.805587   -2.004408   0.292913 C.3        1 UNL1     0.1456
     5 C         -2.661834   -2.042682   1.825308 C.3        1 UNL1     0.2326
     6 O         -1.300305   -2.273283   2.180175 O.3        1 UNL1     -0.3076
     7 O         -3.231787   -0.896599   2.48331 O.3        1 UNL1     -0.4605
     8 C         -3.759794   -1.120631   3.742098 C.ar        1 UNL1     0.1310
     9 C         -4.592904   -2.188345   4.093118 C.ar        1 UNL1     0.0226
     10 C         -5.063933   -2.338535   5.402881 C.ar        1 UNL1     0.1343
     11 C         -4.693575   -1.436995   6.399826 C.ar        1 UNL1     0.1007
     12 C         -3.895416   -0.343823   6.052405 C.ar        1 UNL1     0.1389
     13 C         -3.424084   -0.191562   4.734796 C.ar        1 UNL1     0.0229
     14 C         -5.093714   -1.594684   7.81728 C.2        1 UNL1     0.1740
     15 C         -4.426042   -0.665119   8.787678 C.3        1 UNL1     0.0520
     16 C         -4.33294   0.713377   8.148115 C.3        1 UNL1     0.1322
     17 O         -3.559701   0.661831   6.928889 O.3        1 UNL1     -0.4828
     18 C         -5.682557   1.422764   8.013847 C.ar        1 UNL1     -0.0067
     19 C         -6.03213   2.019348   6.784986 C.ar        1 UNL1     -0.0516
     20 C         -7.237701   2.716614   6.642218 C.ar        1 UNL1     -0.0198
     21 C         -8.096932   2.830434   7.720455 C.ar        1 UNL1     0.1169
     22 C         -7.795948   2.225324   8.933752 C.ar        1 UNL1     -0.0198
     23 C         -6.59899   1.512312   9.071451 C.ar        1 UNL1     -0.0516
     24 O         -9.244257   3.549163   7.554698 O.3        1 UNL1     -0.5068
     25 O         -5.857587   -2.472363   8.210552 O.2        1 UNL1     -0.2917
     26 O         -5.874012   -3.400987   5.679561 O.3        1 UNL1     -0.5058
     27 O         -0.240754   -0.20812   2.53942 O.3        1 UNL1     -0.3648
     28 O         0.256895   -1.951274   -0.580826 O.3        1 UNL1     -0.3841
     29 O         -2.456797   0.370493   -0.270796 O.3        1 UNL1     -0.3863
     30 O         -2.464771   -3.3036   -0.23778 O.3        1 UNL1     -0.3829
     31 H         0.606337   -1.85971   1.809574 H        1 UNL1     0.0937
     32 H         0.0   0.0   0.0 H        1 UNL1     0.0671
     33 H         -1.867765   -1.177996   -1.427931 H        1 UNL1     0.0649
     34 H         -3.853104   -1.81652   0.032517 H        1 UNL1     0.0683
     35 H         -3.224491   -2.936861   2.121519 H        1 UNL1     0.1085
     36 H         -4.871309   -2.953702   3.37699 H        1 UNL1     0.0691
     37 H         -2.805017   0.668785   4.489743 H        1 UNL1     0.0691
     38 H         -3.430861   -1.069091   9.002029 H        1 UNL1     0.0385
     39 H         -4.997707   -0.65037   9.721894 H        1 UNL1     0.0385
     40 H         -3.739052   1.344087   8.823409 H        1 UNL1     0.0789
     41 H         -5.370572   1.95202   5.926232 H        1 UNL1     0.0623
     42 H         -7.490456   3.182401   5.692919 H        1 UNL1     0.0654
     43 H         -8.468649   2.295444   9.780196 H        1 UNL1     0.0654
     44 H         -6.400898   1.04335   10.03045 H        1 UNL1     0.0623
     45 H         -9.00408   4.46757   7.350832 H        1 UNL1     0.2921
     46 H         -5.485715   -3.925537   6.397534 H        1 UNL1     0.2922
     47 H         0.494834   0.353091   2.256909 H        1 UNL1     0.2126
     48 H         1.195557   -1.865133   -0.325431 H        1 UNL1     0.2101
     49 H         -2.016397   0.952561   -0.910357 H        1 UNL1     0.2100
     50 H         -2.698601   -3.311511   -1.189081 H        1 UNL1     0.2102
@<TRIPOS>BOND
     1     1     2    1
     2     1     6    1
     3     2     3    1
     4     3     4    1
     5     3    29    1
     6     3    33    1
     7     4     5    1
     8     5     6    1
     9     5     7    1
    10     5    35    1
    11     7     8    1
    12     8     9   ar
    13     8    13   ar
    14     9    10   ar
    15     9    36    1
    16    10    11   ar
    17    10    26    1
    18    11    12   ar
    19    11    14    1
    20    12    13   ar
    21    12    17    1
    22    13    37    1
    23    14    15    1
    24    14    25    2
    25    15    16    1
    26    15    38    1
    27    15    39    1
    28    16    17    1
    29    16    18    1
    30    16    40    1
    31    18    19   ar
    32    18    23   ar
    33    19    20   ar
    34    19    41    1
    35    20    21   ar
    36    20    42    1
    37    21    22   ar
    38    21    24    1
    39    22    23   ar
    40    22    43    1
    41    23    44    1
    42    24    45    1
    43    26    46    1
    44    27    47    1
    45    28    48    1
    46    29    49    1
    47    30    50    1
    48     1    31    1
    49     1    27    1
    50     2    32    1
    51     2    28    1
    52     4    34    1
    53     4    30    1
