@<TRIPOS>MOLECULE
*****
 50 53 0 0 0
SMALL
GASTEIGER

@<TRIPOS>ATOM
     1 C         -0.081025   -1.032467   1.923084 C.3        1 UNL1     0.1889
     2 C         -0.558086   -0.824649   0.460495 C.3        1 UNL1     0.1342
     3 C         -2.063397   -0.55723   0.308867 C.3        1 UNL1     0.1174
     4 C         -2.907876   -1.32097   1.331937 C.3        1 UNL1     0.1456
     5 C         -2.344623   -1.212788   2.760715 C.3        1 UNL1     0.2326
     6 O         -0.998893   -1.682944   2.789567 O.3        1 UNL1     -0.3076
     7 O         -2.499542   0.095368   3.340414 O.3        1 UNL1     -0.4605
     8 C         -2.667704   0.134186   4.712909 C.ar        1 UNL1     0.1310
     9 C         -3.527831   -0.689105   5.447533 C.ar        1 UNL1     0.0226
     10 C         -3.615199   -0.584434   6.840843 C.ar        1 UNL1     0.1343
     11 C         -2.826175   0.330747   7.536347 C.ar        1 UNL1     0.1007
     12 C         -1.993697   1.186434   6.81001 C.ar        1 UNL1     0.1389
     13 C         -1.907985   1.082795   5.408816 C.ar        1 UNL1     0.0229
     14 C         -2.816646   0.426001   9.014518 C.2        1 UNL1     0.1740
     15 C         -1.750586   1.303642   9.601724 C.3        1 UNL1     0.0520
     16 C         -1.620008   2.548585   8.735107 C.3        1 UNL1     0.1322
     17 O         -1.255084   2.195863   7.382522 O.3        1 UNL1     -0.4828
     18 C         -2.812725   3.501823   8.842279 C.ar        1 UNL1     -0.0067
     19 C         -3.411919   3.996385   7.665594 C.ar        1 UNL1     -0.0516
     20 C         -4.473774   4.906615   7.728115 C.ar        1 UNL1     -0.0198
     21 C         -4.939679   5.334694   8.958362 C.ar        1 UNL1     0.1169
     22 C         -4.392214   4.840056   10.13499 C.ar        1 UNL1     -0.0198
     23 C         -3.342549   3.915718   10.072878 C.ar        1 UNL1     -0.0516
     24 O         -5.950164   6.250594   8.97952 O.3        1 UNL1     -0.5068
     25 O         -3.567659   -0.222144   9.738653 O.2        1 UNL1     -0.2917
     26 O         -4.474399   -1.416067   7.497917 O.3        1 UNL1     -0.5058
     27 O         0.456647   0.139761   2.514334 O.3        1 UNL1     -0.3648
     28 O         -0.256626   -2.015002   -0.291094 O.3        1 UNL1     -0.3841
     29 O         -2.331405   0.846445   0.307454 O.3        1 UNL1     -0.3863
     30 O         -2.959341   -2.714876   0.957682 O.3        1 UNL1     -0.3829
     31 H         0.766065   -1.725783   1.880304 H        1 UNL1     0.0937
     32 H         0.0   0.0   0.0 H        1 UNL1     0.0671
     33 H         -2.368877   -0.913594   -0.684817 H        1 UNL1     0.0649
     34 H         -3.937866   -0.947634   1.320005 H        1 UNL1     0.0683
     35 H         -2.944878   -1.928311   3.336562 H        1 UNL1     0.1085
     36 H         -4.125827   -1.458312   4.971255 H        1 UNL1     0.0691
     37 H         -1.25312   1.761436   4.866514 H        1 UNL1     0.0691
     38 H         -0.81772   0.729898   9.61193 H        1 UNL1     0.0385
     39 H         -2.014703   1.545556   10.636856 H        1 UNL1     0.0385
     40 H         -0.759052   3.116819   9.112447 H        1 UNL1     0.0789
     41 H         -3.058439   3.682824   6.687646 H        1 UNL1     0.0623
     42 H         -4.919595   5.289817   6.813559 H        1 UNL1     0.0654
     43 H         -4.759398   5.157084   11.103793 H        1 UNL1     0.0654
     44 H         -2.94572   3.542127   11.011921 H        1 UNL1     0.0623
     45 H         -5.646028   7.053346   8.52586 H        1 UNL1     0.2921
     46 H         -3.986211   -1.924233   8.164889 H        1 UNL1     0.2922
     47 H         1.180747   0.48543   1.973915 H        1 UNL1     0.2126
     48 H         0.713555   -2.123746   -0.265483 H        1 UNL1     0.2101
     49 H         -1.989673   1.246845   -0.507833 H        1 UNL1     0.2100
     50 H         -3.445961   -2.781715   0.11007 H        1 UNL1     0.2102
@<TRIPOS>BOND
     1     1     2    1
     2     1     6    1
     3     2     3    1
     4     3     4    1
     5     3    29    1
     6     3    33    1
     7     4     5    1
     8     5     6    1
     9     5     7    1
    10     5    35    1
    11     7     8    1
    12     8     9   ar
    13     8    13   ar
    14     9    10   ar
    15     9    36    1
    16    10    11   ar
    17    10    26    1
    18    11    12   ar
    19    11    14    1
    20    12    13   ar
    21    12    17    1
    22    13    37    1
    23    14    15    1
    24    14    25    2
    25    15    16    1
    26    15    38    1
    27    15    39    1
    28    16    17    1
    29    16    18    1
    30    16    40    1
    31    18    19   ar
    32    18    23   ar
    33    19    20   ar
    34    19    41    1
    35    20    21   ar
    36    20    42    1
    37    21    22   ar
    38    21    24    1
    39    22    23   ar
    40    22    43    1
    41    23    44    1
    42    24    45    1
    43    26    46    1
    44    27    47    1
    45    28    48    1
    46    29    49    1
    47    30    50    1
    48     1    31    1
    49     1    27    1
    50     2    32    1
    51     2    28    1
    52     4    34    1
    53     4    30    1
