@<TRIPOS>MOLECULE
*****
 50 53 0 0 0
SMALL
GASTEIGER

@<TRIPOS>ATOM
     1 C         -0.324432   -1.35987   1.678184 C.3        1 UNL1     0.1889
     2 C         -0.464386   -0.977474   0.180143 C.3        1 UNL1     0.1342
     3 C         -1.908919   -0.949905   -0.342379 C.3        1 UNL1     0.1174
     4 C         -2.794129   -2.018809   0.303349 C.3        1 UNL1     0.1456
     5 C         -2.631727   -2.074243   1.833354 C.3        1 UNL1     0.2326
     6 O         -1.265135   -2.303517   2.169105 O.3        1 UNL1     -0.3076
     7 O         -3.198084   -0.938128   2.511442 O.3        1 UNL1     -0.4605
     8 C         -3.70998   -1.178812   3.773806 C.ar        1 UNL1     0.1310
     9 C         -4.534685   -2.253823   4.122397 C.ar        1 UNL1     0.0226
     10 C         -4.989275   -2.421034   5.4359 C.ar        1 UNL1     0.1343
     11 C         -4.610363   -1.529625   6.438725 C.ar        1 UNL1     0.1007
     12 C         -3.820662   -0.429339   6.094448 C.ar        1 UNL1     0.1389
     13 C         -3.365871   -0.259966   4.77312 C.ar        1 UNL1     0.0229
     14 C         -4.99274   -1.705299   7.858964 C.2        1 UNL1     0.1740
     15 C         -4.316966   -0.784377   8.831991 C.3        1 UNL1     0.0520
     16 C         -4.23689   0.601787   8.207416 C.3        1 UNL1     0.1322
     17 O         -3.478245   0.567431   6.978454 O.3        1 UNL1     -0.4828
     18 C         -5.590743   1.307306   8.097653 C.ar        1 UNL1     -0.0067
     19 C         -5.957425   1.916677   6.880104 C.ar        1 UNL1     -0.0516
     20 C         -7.1673   2.610746   6.75997 C.ar        1 UNL1     -0.0198
     21 C         -8.013872   2.708661   7.84972 C.ar        1 UNL1     0.1169
     22 C         -7.695932   2.090752   9.052193 C.ar        1 UNL1     -0.0198
     23 C         -6.494669   1.380962   9.16718 C.ar        1 UNL1     -0.0516
     24 O         -9.165866   3.42469   7.706147 O.3        1 UNL1     -0.5068
     25 O         -5.748432   -2.590502   8.251176 O.2        1 UNL1     -0.2917
     26 O         -5.791869   -3.489831   5.709946 O.3        1 UNL1     -0.5058
     27 O         -0.209256   -0.238451   2.539544 O.3        1 UNL1     -0.3648
     28 O         0.257347   -1.943384   -0.606511 O.3        1 UNL1     -0.3841
     29 O         -2.461293   0.363825   -0.236883 O.3        1 UNL1     -0.3863
     30 O         -2.454765   -3.310406   -0.246469 O.3        1 UNL1     -0.3829
     31 H         0.635289   -1.878101   1.780413 H        1 UNL1     0.0937
     32 H         0.0   0.0   0.0 H        1 UNL1     0.0671
     33 H         -1.880344   -1.168813   -1.41894 H        1 UNL1     0.0649
     34 H         -3.845429   -1.832089   0.05778 H        1 UNL1     0.0683
     35 H         -3.187327   -2.974022   2.125906 H        1 UNL1     0.1085
     36 H         -4.818781   -3.011943   3.400826 H        1 UNL1     0.0691
     37 H         -2.753116   0.605616   4.530647 H        1 UNL1     0.0691
     38 H         -3.317724   -1.186841   9.02964 H        1 UNL1     0.0385
     39 H         -4.877355   -0.782716   9.773128 H        1 UNL1     0.0385
     40 H         -3.637312   1.226998   8.882796 H        1 UNL1     0.0789
     41 H         -5.306036   1.861923   6.012726 H        1 UNL1     0.0623
     42 H         -7.433291   3.086479   5.819258 H        1 UNL1     0.0654
     43 H         -8.358621   2.148394   9.90743 H        1 UNL1     0.0654
     44 H         -6.283207   0.901725   10.118212 H        1 UNL1     0.0623
     45 H         -8.931697   4.346342   7.51009 H        1 UNL1     0.2921
     46 H         -5.392915   -4.021105   6.417049 H        1 UNL1     0.2922
     47 H         0.520706   0.328914   2.254741 H        1 UNL1     0.2126
     48 H         1.198688   -1.856471   -0.361448 H        1 UNL1     0.2101
     49 H         -2.03089   0.955004   -0.874891 H        1 UNL1     0.2100
     50 H         -2.700039   -3.308237   -1.194914 H        1 UNL1     0.2102
@<TRIPOS>BOND
     1     1     2    1
     2     1     6    1
     3     2     3    1
     4     3     4    1
     5     3    29    1
     6     3    33    1
     7     4     5    1
     8     5     6    1
     9     5     7    1
    10     5    35    1
    11     7     8    1
    12     8     9   ar
    13     8    13   ar
    14     9    10   ar
    15     9    36    1
    16    10    11   ar
    17    10    26    1
    18    11    12   ar
    19    11    14    1
    20    12    13   ar
    21    12    17    1
    22    13    37    1
    23    14    15    1
    24    14    25    2
    25    15    16    1
    26    15    38    1
    27    15    39    1
    28    16    17    1
    29    16    18    1
    30    16    40    1
    31    18    19   ar
    32    18    23   ar
    33    19    20   ar
    34    19    41    1
    35    20    21   ar
    36    20    42    1
    37    21    22   ar
    38    21    24    1
    39    22    23   ar
    40    22    43    1
    41    23    44    1
    42    24    45    1
    43    26    46    1
    44    27    47    1
    45    28    48    1
    46    29    49    1
    47    30    50    1
    48     1    31    1
    49     1    27    1
    50     2    32    1
    51     2    28    1
    52     4    34    1
    53     4    30    1
