@<TRIPOS>MOLECULE
*****
 50 53 0 0 0
SMALL
GASTEIGER

@<TRIPOS>ATOM
     1 C         -0.385564   -1.395697   1.63529 C.3        1 UNL1     0.1889
     2 C         -0.423583   -1.003109   0.133834 C.3        1 UNL1     0.1342
     3 C         -1.820074   -1.046713   -0.505208 C.3        1 UNL1     0.1174
     4 C         -2.695419   -2.169375   0.057391 C.3        1 UNL1     0.1456
     5 C         -2.655476   -2.234683   1.595085 C.3        1 UNL1     0.2326
     6 O         -1.310341   -2.394381   2.04003 O.3        1 UNL1     -0.3076
     7 O         -3.33626   -1.138953   2.233232 O.3        1 UNL1     -0.4605
     8 C         -3.925382   -1.419151   3.453048 C.ar        1 UNL1     0.1310
     9 C         -4.709169   -2.543129   3.735277 C.ar        1 UNL1     0.0226
     10 C         -5.249348   -2.747053   5.01063 C.ar        1 UNL1     0.1343
     11 C         -4.998831   -1.843154   6.042156 C.ar        1 UNL1     0.1007
     12 C         -4.251693   -0.696018   5.761715 C.ar        1 UNL1     0.1389
     13 C         -3.710861   -0.489861   4.478582 C.ar        1 UNL1     0.0229
     14 C         -5.474541   -2.052175   7.429299 C.2        1 UNL1     0.1740
     15 C         -4.928013   -1.101286   8.453342 C.3        1 UNL1     0.0520
     16 C         -4.883301   0.29215   7.841546 C.3        1 UNL1     0.1322
     17 O         -4.034875   0.311888   6.67242 O.3        1 UNL1     -0.4828
     18 C         -6.264341   0.918476   7.633776 C.ar        1 UNL1     -0.0067
     19 C         -6.581099   1.499377   6.388612 C.ar        1 UNL1     -0.0516
     20 C         -7.817371   2.122453   6.18036 C.ar        1 UNL1     -0.0198
     21 C         -8.740478   2.177589   7.209273 C.ar        1 UNL1     0.1169
     22 C         -8.470755   1.585295   8.43617 C.ar        1 UNL1     -0.0198
     23 C         -7.241819   0.946004   8.638849 C.ar        1 UNL1     -0.0516
     24 O         -9.918743   2.825775   6.981358 O.3        1 UNL1     -0.5068
     25 O         -6.203998   -2.983004   7.760864 O.2        1 UNL1     -0.2917
     26 O         -6.005958   -3.862942   5.220191 O.3        1 UNL1     -0.5058
     27 O         -0.402233   -0.28031   2.511885 O.3        1 UNL1     -0.3648
     28 O         0.411405   -1.91923   -0.598439 O.3        1 UNL1     -0.3841
     29 O         -2.449951   0.234101   -0.435178 O.3        1 UNL1     -0.3863
     30 O         -2.24252   -3.434096   -0.472752 O.3        1 UNL1     -0.3829
     31 H         0.589434   -1.862896   1.811881 H        1 UNL1     0.0937
     32 H         0.0   0.0   0.0 H        1 UNL1     0.0671
     33 H         -1.691972   -1.250618   -1.577464 H        1 UNL1     0.0649
     34 H         -3.731813   -2.03635   -0.272141 H        1 UNL1     0.0683
     35 H         -3.183228   -3.16648   1.834066 H        1 UNL1     0.1085
     36 H         -4.893981   -3.310701   2.991773 H        1 UNL1     0.0691
     37 H         -3.133657   0.411856   4.285615 H        1 UNL1     0.0691
     38 H         -3.924297   -1.446439   8.723435 H        1 UNL1     0.0385
     39 H         -5.555803   -1.139807   9.350101 H        1 UNL1     0.0385
     40 H         -4.373197   0.945788   8.562012 H        1 UNL1     0.0789
     41 H         -5.87002   1.477353   5.567922 H        1 UNL1     0.0623
     42 H         -8.045137   2.577173   5.219441 H        1 UNL1     0.0654
     43 H         -9.192426   1.609494   9.243955 H        1 UNL1     0.0654
     44 H         -7.068872   0.484723   9.606399 H        1 UNL1     0.0623
     45 H         -10.645018   2.192126   7.098535 H        1 UNL1     0.2921
     46 H         -5.628529   -4.377107   5.95135 H        1 UNL1     0.2922
     47 H         0.329058   0.318503   2.305737 H        1 UNL1     0.2126
     48 H         1.316226   -1.81596   -0.245782 H        1 UNL1     0.2101
     49 H         -1.996496   0.857534   -1.024673 H        1 UNL1     0.2100
     50 H         -2.404401   -3.431358   -1.43893 H        1 UNL1     0.2102
@<TRIPOS>BOND
     1     1     2    1
     2     1     6    1
     3     2     3    1
     4     3     4    1
     5     3    29    1
     6     3    33    1
     7     4     5    1
     8     5     6    1
     9     5     7    1
    10     5    35    1
    11     7     8    1
    12     8     9   ar
    13     8    13   ar
    14     9    10   ar
    15     9    36    1
    16    10    11   ar
    17    10    26    1
    18    11    12   ar
    19    11    14    1
    20    12    13   ar
    21    12    17    1
    22    13    37    1
    23    14    15    1
    24    14    25    2
    25    15    16    1
    26    15    38    1
    27    15    39    1
    28    16    17    1
    29    16    18    1
    30    16    40    1
    31    18    19   ar
    32    18    23   ar
    33    19    20   ar
    34    19    41    1
    35    20    21   ar
    36    20    42    1
    37    21    22   ar
    38    21    24    1
    39    22    23   ar
    40    22    43    1
    41    23    44    1
    42    24    45    1
    43    26    46    1
    44    27    47    1
    45    28    48    1
    46    29    49    1
    47    30    50    1
    48     1    31    1
    49     1    27    1
    50     2    32    1
    51     2    28    1
    52     4    34    1
    53     4    30    1
