@<TRIPOS>MOLECULE
*****
 50 53 0 0 0
SMALL
GASTEIGER

@<TRIPOS>ATOM
     1 C         -1.399597   -1.635921   0.368369 C.3        1 UNL1     0.1889
     2 C         -0.697034   -0.316097   0.785995 C.3        1 UNL1     0.1342
     3 C         0.054642   -0.385407   2.124144 C.3        1 UNL1     0.1174
     4 C         -0.637129   -1.289673   3.147313 C.3        1 UNL1     0.1456
     5 C         -1.068283   -2.639679   2.545688 C.3        1 UNL1     0.2326
     6 O         -1.925721   -2.421873   1.427552 O.3        1 UNL1     -0.3076
     7 O         0.035801   -3.514326   2.2502 O.3        1 UNL1     -0.4605
     8 C         0.388753   -4.403766   3.249123 C.ar        1 UNL1     0.1310
     9 C         0.534784   -4.085002   4.603511 C.ar        1 UNL1     0.0226
     10 C         0.879642   -5.062911   5.54408 C.ar        1 UNL1     0.1343
     11 C         1.063717   -6.389398   5.156279 C.ar        1 UNL1     0.1007
     12 C         0.960883   -6.71201   3.800503 C.ar        1 UNL1     0.1389
     13 C         0.616714   -5.728035   2.854579 C.ar        1 UNL1     0.0229
     14 C         1.346624   -7.478264   6.11986 C.2        1 UNL1     0.1740
     15 C         1.293141   -8.869852   5.561137 C.3        1 UNL1     0.0520
     16 C         1.93346   -8.859394   4.179891 C.3        1 UNL1     0.1322
     17 O         1.227226   -7.962949   3.294064 O.3        1 UNL1     -0.4828
     18 C         3.450894   -8.660763   4.205673 C.ar        1 UNL1     -0.0067
     19 C         4.286488   -9.631126   3.615427 C.ar        1 UNL1     -0.0516
     20 C         5.679877   -9.503964   3.662967 C.ar        1 UNL1     -0.0198
     21 C         6.248771   -8.417286   4.302746 C.ar        1 UNL1     0.1169
     22 C         5.451811   -7.42811   4.864194 C.ar        1 UNL1     -0.0198
     23 C         4.058176   -7.545619   4.800699 C.ar        1 UNL1     -0.0516
     24 O         7.609615   -8.346573   4.361953 O.3        1 UNL1     -0.5068
     25 O         1.535672   -7.288227   7.318455 O.2        1 UNL1     -0.2917
     26 O         1.007506   -4.686415   6.849257 O.3        1 UNL1     -0.5058
     27 O         -0.638716   -2.41938   -0.537192 O.3        1 UNL1     -0.3648
     28 O         -1.695987   0.71335   0.908617 O.3        1 UNL1     -0.3841
     29 O         1.425937   -0.730717   1.918125 O.3        1 UNL1     -0.3863
     30 O         -1.806648   -0.615778   3.660908 O.3        1 UNL1     -0.3829
     31 H         -2.288661   -1.349496   -0.203998 H        1 UNL1     0.0937
     32 H         0.0   0.0   0.0 H        1 UNL1     0.0671
     33 H         0.069788   0.626287   2.553057 H        1 UNL1     0.0649
     34 H         0.028985   -1.469271   3.998451 H        1 UNL1     0.0683
     35 H         -1.680754   -3.09663   3.333059 H        1 UNL1     0.1085
     36 H         0.350537   -3.083547   4.976688 H        1 UNL1     0.0691
     37 H         0.544043   -6.004665   1.804966 H        1 UNL1     0.0691
     38 H         0.239679   -9.164284   5.505883 H        1 UNL1     0.0385
     39 H         1.803508   -9.552653   6.24895 H        1 UNL1     0.0385
     40 H         1.778138   -9.855384   3.743544 H        1 UNL1     0.0789
     41 H         3.864576   -10.498011   3.115275 H        1 UNL1     0.0623
     42 H         6.313667   -10.264994   3.214463 H        1 UNL1     0.0654
     43 H         5.886733   -6.565343   5.354485 H        1 UNL1     0.0654
     44 H         3.466133   -6.748872   5.240612 H        1 UNL1     0.0623
     45 H         7.900975   -7.590308   3.827267 H        1 UNL1     0.2921
     46 H         1.890874   -4.927173   7.170362 H        1 UNL1     0.2922
     47 H         -1.113849   -3.232836   -0.757186 H        1 UNL1     0.2126
     48 H         -2.18025   0.735563   0.060838 H        1 UNL1     0.2101
     49 H         1.517614   -1.694781   1.855121 H        1 UNL1     0.2100
     50 H         -2.574439   -1.212848   3.543791 H        1 UNL1     0.2102
@<TRIPOS>BOND
     1     1     2    1
     2     1     6    1
     3     2     3    1
     4     3     4    1
     5     3    29    1
     6     3    33    1
     7     4     5    1
     8     5     6    1
     9     5     7    1
    10     5    35    1
    11     7     8    1
    12     8     9   ar
    13     8    13   ar
    14     9    10   ar
    15     9    36    1
    16    10    11   ar
    17    10    26    1
    18    11    12   ar
    19    11    14    1
    20    12    13   ar
    21    12    17    1
    22    13    37    1
    23    14    15    1
    24    14    25    2
    25    15    16    1
    26    15    38    1
    27    15    39    1
    28    16    17    1
    29    16    18    1
    30    16    40    1
    31    18    19   ar
    32    18    23   ar
    33    19    20   ar
    34    19    41    1
    35    20    21   ar
    36    20    42    1
    37    21    22   ar
    38    21    24    1
    39    22    23   ar
    40    22    43    1
    41    23    44    1
    42    24    45    1
    43    26    46    1
    44    27    47    1
    45    28    48    1
    46    29    49    1
    47    30    50    1
    48     1    31    1
    49     1    27    1
    50     2    32    1
    51     2    28    1
    52     4    34    1
    53     4    30    1
