@<TRIPOS>MOLECULE
*****
 50 53 0 0 0
SMALL
GASTEIGER

@<TRIPOS>ATOM
     1 C         -0.395811   -1.376732   1.648862 C.3        1 UNL1     0.1889
     2 C         -0.493495   -0.967542   0.154553 C.3        1 UNL1     0.1342
     3 C         -1.925247   -0.893694   -0.397804 C.3        1 UNL1     0.1174
     4 C         -2.851723   -1.948736   0.211824 C.3        1 UNL1     0.1456
     5 C         -2.72376   -2.032208   1.743823 C.3        1 UNL1     0.2326
     6 O         -1.371151   -2.302704   2.104583 O.3        1 UNL1     -0.3076
     7 O         -3.274735   -0.892197   2.428017 O.3        1 UNL1     -0.4605
     8 C         -3.819763   -1.138854   3.675267 C.ar        1 UNL1     0.1310
     9 C         -4.905339   -1.982985   3.932689 C.ar        1 UNL1     0.0226
     10 C         -5.374474   -2.181502   5.236685 C.ar        1 UNL1     0.1343
     11 C         -4.753696   -1.558625   6.318582 C.ar        1 UNL1     0.1007
     12 C         -3.694741   -0.681373   6.069933 C.ar        1 UNL1     0.1389
     13 C         -3.2249   -0.479877   4.758414 C.ar        1 UNL1     0.0229
     14 C         -5.154629   -1.798134   7.724299 C.2        1 UNL1     0.1740
     15 C         -4.240704   -1.224315   8.766903 C.3        1 UNL1     0.0520
     16 C         -3.787869   0.153869   8.304837 C.3        1 UNL1     0.1322
     17 O         -3.081226   0.066712   7.047805 O.3        1 UNL1     -0.4828
     18 C         -4.895568   1.209629   8.33799 C.ar        1 UNL1     -0.0067
     19 C         -5.288562   1.762497   9.574156 C.ar        1 UNL1     -0.0516
     20 C         -6.330325   2.695041   9.645241 C.ar        1 UNL1     -0.0198
     21 C         -6.99039   3.076492   8.490842 C.ar        1 UNL1     0.1169
     22 C         -6.604141   2.574911   7.254692 C.ar        1 UNL1     -0.0198
     23 C         -5.550212   1.656283   7.181125 C.ar        1 UNL1     -0.0516
     24 O         -8.02492   3.958201   8.603704 O.3        1 UNL1     -0.5068
     25 O         -6.12104   -2.485386   8.044016 O.2        1 UNL1     -0.2917
     26 O         -6.437875   -3.016487   5.419883 O.3        1 UNL1     -0.5058
     27 O         -0.269966   -0.272267   2.5304 O.3        1 UNL1     -0.3648
     28 O         0.219542   -1.939848   -0.632153 O.3        1 UNL1     -0.3841
     29 O         -2.4453   0.432376   -0.282846 O.3        1 UNL1     -0.3863
     30 O         -2.534427   -3.240152   -0.351434 O.3        1 UNL1     -0.3829
     31 H         0.547643   -1.921669   1.762952 H        1 UNL1     0.0937
     32 H         0.0   0.0   0.0 H        1 UNL1     0.0671
     33 H         -1.87925   -1.096527   -1.476907 H        1 UNL1     0.0649
     34 H         -3.89227   -1.730507   -0.052823 H        1 UNL1     0.0683
     35 H         -3.308808   -2.921427   2.010072 H        1 UNL1     0.1085
     36 H         -5.395229   -2.539408   3.141157 H        1 UNL1     0.0691
     37 H         -2.399696   0.209044   4.591327 H        1 UNL1     0.0691
     38 H         -3.389274   -1.905172   8.871916 H        1 UNL1     0.0385
     39 H         -4.768872   -1.186697   9.725757 H        1 UNL1     0.0385
     40 H         -3.031929   0.503223   9.021096 H        1 UNL1     0.0789
     41 H         -4.792299   1.472515   10.495722 H        1 UNL1     0.0623
     42 H         -6.631984   3.105184   10.605864 H        1 UNL1     0.0654
     43 H         -7.104283   2.878207   6.342673 H        1 UNL1     0.0654
     44 H         -5.268004   1.292961   6.197661 H        1 UNL1     0.0623
     45 H         -7.685985   4.852062   8.433848 H        1 UNL1     0.2921
     46 H         -6.263558   -3.601692   6.173912 H        1 UNL1     0.2922
     47 H         -1.144297   0.049576   2.790825 H        1 UNL1     0.2126
     48 H         -0.328184   -2.117433   -1.420945 H        1 UNL1     0.2101
     49 H         -3.003031   0.50069   0.508396 H        1 UNL1     0.2100
     50 H         -2.208318   -3.099022   -1.264368 H        1 UNL1     0.2102
@<TRIPOS>BOND
     1     1     2    1
     2     1     6    1
     3     2     3    1
     4     3     4    1
     5     3    29    1
     6     3    33    1
     7     4     5    1
     8     5     6    1
     9     5     7    1
    10     5    35    1
    11     7     8    1
    12     8     9   ar
    13     8    13   ar
    14     9    10   ar
    15     9    36    1
    16    10    11   ar
    17    10    26    1
    18    11    12   ar
    19    11    14    1
    20    12    13   ar
    21    12    17    1
    22    13    37    1
    23    14    15    1
    24    14    25    2
    25    15    16    1
    26    15    38    1
    27    15    39    1
    28    16    17    1
    29    16    18    1
    30    16    40    1
    31    18    19   ar
    32    18    23   ar
    33    19    20   ar
    34    19    41    1
    35    20    21   ar
    36    20    42    1
    37    21    22   ar
    38    21    24    1
    39    22    23   ar
    40    22    43    1
    41    23    44    1
    42    24    45    1
    43    26    46    1
    44    27    47    1
    45    28    48    1
    46    29    49    1
    47    30    50    1
    48     1    31    1
    49     1    27    1
    50     2    32    1
    51     2    28    1
    52     4    34    1
    53     4    30    1
