@<TRIPOS>MOLECULE
*****
 50 53 0 0 0
SMALL
GASTEIGER

@<TRIPOS>ATOM
     1 C         1.034024   0.91902   1.690267 C.3        1 UNL1     0.1889
     2 C         1.031521   0.207925   0.310311 C.3        1 UNL1     0.1342
     3 C         1.842617   -1.095911   0.259332 C.3        1 UNL1     0.1174
     4 C         3.092478   -1.052254   1.141976 C.3        1 UNL1     0.1456
     5 C         2.80365   -0.4926   2.546871 C.3        1 UNL1     0.2326
     6 O         2.232913   0.809865   2.443356 O.3        1 UNL1     -0.3076
     7 O         2.032101   -1.384567   3.371751 O.3        1 UNL1     -0.4605
     8 C         2.597039   -1.727565   4.586957 C.ar        1 UNL1     0.1310
     9 C         3.594036   -2.691066   4.773945 C.ar        1 UNL1     0.0226
     10 C         4.115631   -2.955368   6.045945 C.ar        1 UNL1     0.1343
     11 C         3.669278   -2.245041   7.159519 C.ar        1 UNL1     0.1007
     12 C         2.645001   -1.309395   6.991573 C.ar        1 UNL1     0.1389
     13 C         2.118845   -1.045697   5.712881 C.ar        1 UNL1     0.0229
     14 C         4.24444   -2.424402   8.512727 C.2        1 UNL1     0.1740
     15 C         3.804166   -1.426166   9.542888 C.3        1 UNL1     0.0520
     16 C         2.317195   -1.16078   9.351987 C.3        1 UNL1     0.1322
     17 O         2.055929   -0.631356   8.033457 O.3        1 UNL1     -0.4828
     18 C         1.424878   -2.338642   9.750902 C.ar        1 UNL1     -0.0067
     19 C         1.774055   -3.641871   9.341166 C.ar        1 UNL1     -0.0516
     20 C         0.955221   -4.735058   9.648437 C.ar        1 UNL1     -0.0198
     21 C         -0.216476   -4.53762   10.356936 C.ar        1 UNL1     0.1169
     22 C         -0.570286   -3.270876   10.803049 C.ar        1 UNL1     -0.0198
     23 C         0.257715   -2.18016   10.51183 C.ar        1 UNL1     -0.0516
     24 O         -1.007656   -5.620641   10.60493 O.3        1 UNL1     -0.5068
     25 O         5.088797   -3.274972   8.7812 O.2        1 UNL1     -0.2917
     26 O         5.085542   -3.908109   6.160579 O.3        1 UNL1     -0.5058
     27 O         -0.108398   0.626586   2.479026 O.3        1 UNL1     -0.3648
     28 O         1.597522   1.102943   -0.665032 O.3        1 UNL1     -0.3841
     29 O         1.008749   -2.222949   0.536068 O.3        1 UNL1     -0.3863
     30 O         4.091087   -0.223313   0.508473 O.3        1 UNL1     -0.3829
     31 H         0.954989   1.992937   1.488934 H        1 UNL1     0.0937
     32 H         0.0   -0.0   0.0 H        1 UNL1     0.0671
     33 H         2.188327   -1.235584   -0.774446 H        1 UNL1     0.0649
     34 H         3.520767   -2.056518   1.233754 H        1 UNL1     0.0683
     35 H         3.798757   -0.370274   2.992604 H        1 UNL1     0.1085
     36 H         4.02242   -3.237442   3.94083 H        1 UNL1     0.0691
     37 H         1.321147   -0.313317   5.609004 H        1 UNL1     0.0691
     38 H         4.390797   -0.513713   9.391821 H        1 UNL1     0.0385
     39 H         4.030249   -1.816847   10.540903 H        1 UNL1     0.0385
     40 H         2.043752   -0.344827   10.034607 H        1 UNL1     0.0789
     41 H         2.683931   -3.821882   8.776036 H        1 UNL1     0.0623
     42 H         1.229317   -5.733442   9.316606 H        1 UNL1     0.0654
     43 H         -1.477994   -3.107217   11.37155 H        1 UNL1     0.0654
     44 H         -0.044149   -1.206314   10.885122 H        1 UNL1     0.0623
     45 H         -0.457985   -6.419534   10.556491 H        1 UNL1     0.2921
     46 H         4.855579   -4.671972   5.608272 H        1 UNL1     0.2922
     47 H         0.159352   0.350415   3.366663 H        1 UNL1     0.2126
     48 H         0.882379   1.320049   -1.293656 H        1 UNL1     0.2101
     49 H         0.121268   -2.073964   0.172786 H        1 UNL1     0.2100
     50 H         3.663486   0.619185   0.249502 H        1 UNL1     0.2102
@<TRIPOS>BOND
     1     1     2    1
     2     1     6    1
     3     2     3    1
     4     3     4    1
     5     3    29    1
     6     3    33    1
     7     4     5    1
     8     5     6    1
     9     5     7    1
    10     5    35    1
    11     7     8    1
    12     8     9   ar
    13     8    13   ar
    14     9    10   ar
    15     9    36    1
    16    10    11   ar
    17    10    26    1
    18    11    12   ar
    19    11    14    1
    20    12    13   ar
    21    12    17    1
    22    13    37    1
    23    14    15    1
    24    14    25    2
    25    15    16    1
    26    15    38    1
    27    15    39    1
    28    16    17    1
    29    16    18    1
    30    16    40    1
    31    18    19   ar
    32    18    23   ar
    33    19    20   ar
    34    19    41    1
    35    20    21   ar
    36    20    42    1
    37    21    22   ar
    38    21    24    1
    39    22    23   ar
    40    22    43    1
    41    23    44    1
    42    24    45    1
    43    26    46    1
    44    27    47    1
    45    28    48    1
    46    29    49    1
    47    30    50    1
    48     1    31    1
    49     1    27    1
    50     2    32    1
    51     2    28    1
    52     4    34    1
    53     4    30    1
