@<TRIPOS>MOLECULE
*****
 50 53 0 0 0
SMALL
GASTEIGER

@<TRIPOS>ATOM
     1 C         1.571334   1.294076   0.791885 C.3        1 UNL1     0.1889
     2 C         1.068937   0.18158   -0.167225 C.3        1 UNL1     0.1342
     3 C         1.826714   -1.150377   -0.057099 C.3        1 UNL1     0.1174
     4 C         3.314132   -0.963169   0.252188 C.3        1 UNL1     0.1456
     5 C         3.558197   0.047087   1.388049 C.3        1 UNL1     0.2326
     6 O         2.966077   1.301517   1.058401 O.3        1 UNL1     -0.3076
     7 O         3.165224   -0.441093   2.683647 O.3        1 UNL1     -0.4605
     8 C         3.923635   -0.000217   3.753212 C.ar        1 UNL1     0.1310
     9 C         5.294134   0.278258   3.714669 C.ar        1 UNL1     0.0226
     10 C         5.971486   0.737892   4.850377 C.ar        1 UNL1     0.1343
     11 C         5.289252   0.953121   6.047071 C.ar        1 UNL1     0.1007
     12 C         3.928876   0.639565   6.109055 C.ar        1 UNL1     0.1389
     13 C         3.24858   0.174904   4.967688 C.ar        1 UNL1     0.0229
     14 C         5.937786   1.516808   7.253642 C.2        1 UNL1     0.1740
     15 C         5.012049   1.889504   8.374203 C.3        1 UNL1     0.0520
     16 C         3.939192   0.815505   8.490239 C.3        1 UNL1     0.1322
     17 O         3.183847   0.710567   7.263246 O.3        1 UNL1     -0.4828
     18 C         4.458859   -0.518621   9.031327 C.ar        1 UNL1     -0.0067
     19 C         4.999538   -0.574871   10.332371 C.ar        1 UNL1     -0.0516
     20 C         5.526689   -1.768263   10.840199 C.ar        1 UNL1     -0.0198
     21 C         5.525721   -2.907917   10.05597 C.ar        1 UNL1     0.1169
     22 C         4.969972   -2.892224   8.783281 C.ar        1 UNL1     -0.0198
     23 C         4.426041   -1.703519   8.282105 C.ar        1 UNL1     -0.0516
     24 O         6.081971   -4.042196   10.570167 O.3        1 UNL1     -0.5068
     25 O         7.141475   1.749365   7.328051 O.2        1 UNL1     -0.2917
     26 O         7.308398   0.989852   4.746616 O.3        1 UNL1     -0.5058
     27 O         0.809708   1.398963   1.98424 O.3        1 UNL1     -0.3648
     28 O         1.215133   0.646884   -1.521782 O.3        1 UNL1     -0.3841
     29 O         1.176393   -2.029132   0.86323 O.3        1 UNL1     -0.3863
     30 O         3.990163   -0.49772   -0.9361 O.3        1 UNL1     -0.3829
     31 H         1.403393   2.247863   0.279865 H        1 UNL1     0.0937
     32 H         0.0   -0.0   0.0 H        1 UNL1     0.0671
     33 H         1.765728   -1.652547   -1.032715 H        1 UNL1     0.0649
     34 H         3.764203   -1.925248   0.520966 H        1 UNL1     0.0683
     35 H         4.645266   0.195772   1.380767 H        1 UNL1     0.1085
     36 H         5.869507   0.184724   2.800164 H        1 UNL1     0.0691
     37 H         2.189687   -0.06312   5.042417 H        1 UNL1     0.0691
     38 H         4.57216   2.862494   8.130657 H        1 UNL1     0.0385
     39 H         5.591365   1.997507   9.297516 H        1 UNL1     0.0385
     40 H         3.209474   1.165795   9.232753 H        1 UNL1     0.0789
     41 H         5.020332   0.308174   10.964392 H        1 UNL1     0.0623
     42 H         5.951587   -1.795938   11.840553 H        1 UNL1     0.0654
     43 H         4.950404   -3.782673   8.166332 H        1 UNL1     0.0654
     44 H         3.990617   -1.730105   7.28785 H        1 UNL1     0.0623
     45 H         6.908151   -4.222174   10.092933 H        1 UNL1     0.2921
     46 H         7.442713   1.879819   4.384222 H        1 UNL1     0.2922
     47 H         0.594372   0.518587   2.322515 H        1 UNL1     0.2126
     48 H         1.643922   1.522886   -1.471855 H        1 UNL1     0.2101
     49 H         1.660718   -2.043598   1.704072 H        1 UNL1     0.2100
     50 H         3.644905   -1.006987   -1.698437 H        1 UNL1     0.2102
@<TRIPOS>BOND
     1     1     2    1
     2     1     6    1
     3     2     3    1
     4     3     4    1
     5     3    29    1
     6     3    33    1
     7     4     5    1
     8     5     6    1
     9     5     7    1
    10     5    35    1
    11     7     8    1
    12     8     9   ar
    13     8    13   ar
    14     9    10   ar
    15     9    36    1
    16    10    11   ar
    17    10    26    1
    18    11    12   ar
    19    11    14    1
    20    12    13   ar
    21    12    17    1
    22    13    37    1
    23    14    15    1
    24    14    25    2
    25    15    16    1
    26    15    38    1
    27    15    39    1
    28    16    17    1
    29    16    18    1
    30    16    40    1
    31    18    19   ar
    32    18    23   ar
    33    19    20   ar
    34    19    41    1
    35    20    21   ar
    36    20    42    1
    37    21    22   ar
    38    21    24    1
    39    22    23   ar
    40    22    43    1
    41    23    44    1
    42    24    45    1
    43    26    46    1
    44    27    47    1
    45    28    48    1
    46    29    49    1
    47    30    50    1
    48     1    31    1
    49     1    27    1
    50     2    32    1
    51     2    28    1
    52     4    34    1
    53     4    30    1
