@<TRIPOS>MOLECULE
*****
 50 53 0 0 0
SMALL
GASTEIGER

@<TRIPOS>ATOM
     1 C         -0.330805   -1.356301   1.679828 C.3        1 UNL1     0.1889
     2 C         -0.466253   -0.976479   0.180718 C.3        1 UNL1     0.1342
     3 C         -1.909359   -0.947824   -0.345674 C.3        1 UNL1     0.1174
     4 C         -2.797795   -2.014273   0.299681 C.3        1 UNL1     0.1456
     5 C         -2.639518   -2.067108   1.830211 C.3        1 UNL1     0.2326
     6 O         -1.274146   -2.297701   2.169999 O.3        1 UNL1     -0.3076
     7 O         -3.206045   -0.928937   2.504699 O.3        1 UNL1     -0.4605
     8 C         -3.721619   -1.166558   3.766146 C.ar        1 UNL1     0.1310
     9 C         -4.548773   -2.239749   4.114538 C.ar        1 UNL1     0.0226
     10 C         -5.007072   -2.403884   5.427141 C.ar        1 UNL1     0.1343
     11 C         -4.629542   -1.511161   6.429316 C.ar        1 UNL1     0.1007
     12 C         -3.837366   -0.412636   6.0851 C.ar        1 UNL1     0.1389
     13 C         -3.378843   -0.246354   4.764669 C.ar        1 UNL1     0.0229
     14 C         -5.015922   -1.683663   7.848861 C.2        1 UNL1     0.1740
     15 C         -4.34141   -0.761904   8.821971 C.3        1 UNL1     0.0520
     16 C         -4.257707   0.622987   8.195052 C.3        1 UNL1     0.1322
     17 O         -3.495866   0.58528   6.968167 O.3        1 UNL1     -0.4828
     18 C         -5.610259   1.330224   8.080405 C.ar        1 UNL1     -0.0067
     19 C         -5.972852   1.937862   6.860767 C.ar        1 UNL1     -0.0516
     20 C         -7.181415   2.633425   6.736151 C.ar        1 UNL1     -0.0198
     21 C         -8.030724   2.734558   7.823474 C.ar        1 UNL1     0.1169
     22 C         -7.716844   2.118424   9.027923 C.ar        1 UNL1     -0.0198
     23 C         -6.516902   1.407142   9.147399 C.ar        1 UNL1     -0.0516
     24 O         -9.181313   3.451956   7.675532 O.3        1 UNL1     -0.5068
     25 O         -5.773908   -2.567066   8.240706 O.2        1 UNL1     -0.2917
     26 O         -5.81191   -3.471031   5.701034 O.3        1 UNL1     -0.5058
     27 O         -0.216307   -0.233455   2.539418 O.3        1 UNL1     -0.3648
     28 O         0.256179   -1.944867   -0.602239 O.3        1 UNL1     -0.3841
     29 O         -2.460137   0.366882   -0.244065 O.3        1 UNL1     -0.3863
     30 O         -2.458821   -3.307366   -0.246851 O.3        1 UNL1     -0.3829
     31 H         0.627903   -1.875705   1.785552 H        1 UNL1     0.0937
     32 H         0.0   0.0   0.0 H        1 UNL1     0.0671
     33 H         -1.878251   -1.168764   -1.421749 H        1 UNL1     0.0649
     34 H         -3.848176   -1.826515   0.050988 H        1 UNL1     0.0683
     35 H         -3.197171   -2.965553   2.122952 H        1 UNL1     0.1085
     36 H         -4.832042   -2.998798   3.393619 H        1 UNL1     0.0691
     37 H         -2.764216   0.617907   4.522221 H        1 UNL1     0.0691
     38 H         -3.343268   -1.165421   9.023006 H        1 UNL1     0.0385
     39 H         -4.904282   -0.757706   9.761618 H        1 UNL1     0.0385
     40 H         -3.659026   1.248594   8.870861 H        1 UNL1     0.0789
     41 H         -5.319251   1.880579   5.995218 H        1 UNL1     0.0623
     42 H         -7.44424   3.107795   5.793862 H        1 UNL1     0.0654
     43 H         -8.381709   2.17859   9.881296 H        1 UNL1     0.0654
     44 H         -6.308639   0.929365   10.09987 H        1 UNL1     0.0623
     45 H         -8.945312   4.372911   7.478395 H        1 UNL1     0.2921
     46 H         -5.415584   -4.001563   6.410171 H        1 UNL1     0.2922
     47 H         0.515212   0.332344   2.255499 H        1 UNL1     0.2126
     48 H         1.196992   -1.858837   -0.354847 H        1 UNL1     0.2101
     49 H         -2.027207   0.956268   -0.882023 H        1 UNL1     0.2100
     50 H         -2.701584   -3.306603   -1.195944 H        1 UNL1     0.2102
@<TRIPOS>BOND
     1     1     2    1
     2     1     6    1
     3     2     3    1
     4     3     4    1
     5     3    29    1
     6     3    33    1
     7     4     5    1
     8     5     6    1
     9     5     7    1
    10     5    35    1
    11     7     8    1
    12     8     9   ar
    13     8    13   ar
    14     9    10   ar
    15     9    36    1
    16    10    11   ar
    17    10    26    1
    18    11    12   ar
    19    11    14    1
    20    12    13   ar
    21    12    17    1
    22    13    37    1
    23    14    15    1
    24    14    25    2
    25    15    16    1
    26    15    38    1
    27    15    39    1
    28    16    17    1
    29    16    18    1
    30    16    40    1
    31    18    19   ar
    32    18    23   ar
    33    19    20   ar
    34    19    41    1
    35    20    21   ar
    36    20    42    1
    37    21    22   ar
    38    21    24    1
    39    22    23   ar
    40    22    43    1
    41    23    44    1
    42    24    45    1
    43    26    46    1
    44    27    47    1
    45    28    48    1
    46    29    49    1
    47    30    50    1
    48     1    31    1
    49     1    27    1
    50     2    32    1
    51     2    28    1
    52     4    34    1
    53     4    30    1
