@<TRIPOS>MOLECULE
*****
 50 53 0 0 0
SMALL
GASTEIGER

@<TRIPOS>ATOM
     1 C         -0.319718   -1.335431   1.698591 C.3        1 UNL1     0.1889
     2 C         -0.459046   -0.977241   0.19452 C.3        1 UNL1     0.1342
     3 C         -1.902722   -0.966239   -0.330976 C.3        1 UNL1     0.1174
     4 C         -2.782937   -2.030099   0.329737 C.3        1 UNL1     0.1456
     5 C         -2.623118   -2.060744   1.860711 C.3        1 UNL1     0.2326
     6 O         -1.255858   -2.276786   2.202462 O.3        1 UNL1     -0.3076
     7 O         -3.197343   -0.917526   2.519982 O.3        1 UNL1     -0.4605
     8 C         -3.699598   -1.138877   3.789735 C.ar        1 UNL1     0.1310
     9 C         -4.511178   -2.215287   4.163875 C.ar        1 UNL1     0.0226
     10 C         -4.956601   -2.361606   5.483 C.ar        1 UNL1     0.1343
     11 C         -4.581264   -1.447075   6.466156 C.ar        1 UNL1     0.1007
     12 C         -3.804921   -0.345669   6.096046 C.ar        1 UNL1     0.1389
     13 C         -3.359364   -0.197339   4.769054 C.ar        1 UNL1     0.0229
     14 C         -4.953789   -1.599045   7.891738 C.2        1 UNL1     0.1740
     15 C         -4.282083   -0.652554   8.842798 C.3        1 UNL1     0.0520
     16 C         -4.21985   0.721971   8.191058 C.3        1 UNL1     0.1322
     17 O         -3.467835   0.671519   6.958582 O.3        1 UNL1     -0.4828
     18 C         -5.581515   1.411359   8.075571 C.ar        1 UNL1     -0.0067
     19 C         -5.968818   1.977585   6.843663 C.ar        1 UNL1     -0.0516
     20 C         -7.186542   2.656488   6.716371 C.ar        1 UNL1     -0.0198
     21 C         -8.020558   2.782095   7.812941 C.ar        1 UNL1     0.1169
     22 C         -7.682094   2.206409   9.030671 C.ar        1 UNL1     -0.0198
     23 C         -6.472897   1.511549   9.153436 C.ar        1 UNL1     -0.0516
     24 O         -9.180901   3.482705   7.660787 O.3        1 UNL1     -0.5068
     25 O         -5.698074   -2.484142   8.305413 O.2        1 UNL1     -0.2917
     26 O         -5.746556   -3.433025   5.78236 O.3        1 UNL1     -0.5058
     27 O         -0.212684   -0.200077   2.542571 O.3        1 UNL1     -0.3648
     28 O         0.26977   -1.951063   -0.575677 O.3        1 UNL1     -0.3841
     29 O         -2.462909   0.345731   -0.24697 O.3        1 UNL1     -0.3863
     30 O         -2.435042   -3.328103   -0.199265 O.3        1 UNL1     -0.3829
     31 H         0.642799   -1.846401   1.810619 H        1 UNL1     0.0937
     32 H         0.0   0.0   0.0 H        1 UNL1     0.0671
     33 H         -1.870836   -1.201721   -1.40394 H        1 UNL1     0.0649
     34 H         -3.834835   -1.853361   0.079389 H        1 UNL1     0.0683
     35 H         -3.174042   -2.95908   2.16625 H        1 UNL1     0.1085
     36 H         -4.791496   -2.990133   3.458781 H        1 UNL1     0.0691
     37 H         -2.756959   0.669588   4.506302 H        1 UNL1     0.0691
     38 H         -3.277639   -1.040877   9.04236 H        1 UNL1     0.0385
     39 H         -4.837142   -0.638349   9.786984 H        1 UNL1     0.0385
     40 H         -3.62296   1.366266   8.8507 H        1 UNL1     0.0789
     41 H         -5.327639   1.900576   5.970388 H        1 UNL1     0.0623
     42 H         -7.468515   3.099039   5.764188 H        1 UNL1     0.0654
     43 H         -8.334748   2.28581   9.891861 H        1 UNL1     0.0654
     44 H         -6.245288   1.065341   10.116731 H        1 UNL1     0.0623
     45 H         -9.924961   2.889077   7.852351 H        1 UNL1     0.2921
     46 H         -5.336824   -3.947866   6.495431 H        1 UNL1     0.2922
     47 H         0.527575   0.356402   2.262916 H        1 UNL1     0.2126
     48 H         1.203837   -1.884748   -0.298451 H        1 UNL1     0.2101
     49 H         -2.028802   0.931552   -0.887406 H        1 UNL1     0.2100
     50 H         -2.673318   -3.340195   -1.149418 H        1 UNL1     0.2102
@<TRIPOS>BOND
     1     1     2    1
     2     1     6    1
     3     2     3    1
     4     3     4    1
     5     3    29    1
     6     3    33    1
     7     4     5    1
     8     5     6    1
     9     5     7    1
    10     5    35    1
    11     7     8    1
    12     8     9   ar
    13     8    13   ar
    14     9    10   ar
    15     9    36    1
    16    10    11   ar
    17    10    26    1
    18    11    12   ar
    19    11    14    1
    20    12    13   ar
    21    12    17    1
    22    13    37    1
    23    14    15    1
    24    14    25    2
    25    15    16    1
    26    15    38    1
    27    15    39    1
    28    16    17    1
    29    16    18    1
    30    16    40    1
    31    18    19   ar
    32    18    23   ar
    33    19    20   ar
    34    19    41    1
    35    20    21   ar
    36    20    42    1
    37    21    22   ar
    38    21    24    1
    39    22    23   ar
    40    22    43    1
    41    23    44    1
    42    24    45    1
    43    26    46    1
    44    27    47    1
    45    28    48    1
    46    29    49    1
    47    30    50    1
    48     1    31    1
    49     1    27    1
    50     2    32    1
    51     2    28    1
    52     4    34    1
    53     4    30    1
