@<TRIPOS>MOLECULE
*****
 50 53 0 0 0
SMALL
GASTEIGER

@<TRIPOS>ATOM
     1 C         -0.387667   -1.396768   1.633878 C.3        1 UNL1     0.1889
     2 C         -0.424565   -1.002839   0.132746 C.3        1 UNL1     0.1342
     3 C         -1.82077   -1.044613   -0.507044 C.3        1 UNL1     0.1174
     4 C         -2.697423   -2.166966   0.054133 C.3        1 UNL1     0.1456
     5 C         -2.658322   -2.233649   1.59179 C.3        1 UNL1     0.2326
     6 O         -1.313559   -2.394959   2.037279 O.3        1 UNL1     -0.3076
     7 O         -3.338432   -1.137855   2.230545 O.3        1 UNL1     -0.4605
     8 C         -3.928833   -1.418697   3.449594 C.ar        1 UNL1     0.1310
     9 C         -4.714061   -2.542122   3.730013 C.ar        1 UNL1     0.0226
     10 C         -5.25548   -2.746803   5.004718 C.ar        1 UNL1     0.1343
     11 C         -5.004813   -1.84426   6.037395 C.ar        1 UNL1     0.1007
     12 C         -4.256211   -0.697638   5.758759 C.ar        1 UNL1     0.1389
     13 C         -3.714129   -0.490718   4.476276 C.ar        1 UNL1     0.0229
     14 C         -5.481859   -2.054225   7.423936 C.2        1 UNL1     0.1740
     15 C         -4.935125   -1.105004   8.449416 C.3        1 UNL1     0.0520
     16 C         -4.888415   0.289025   7.839122 C.3        1 UNL1     0.1322
     17 O         -4.039033   0.309074   6.670697 O.3        1 UNL1     -0.4828
     18 C         -6.268611   0.917063   7.630907 C.ar        1 UNL1     -0.0067
     19 C         -6.583041   1.501374   6.38675 C.ar        1 UNL1     -0.0516
     20 C         -7.818471   2.126039   6.178256 C.ar        1 UNL1     -0.0198
     21 C         -8.74304   2.179376   7.205949 C.ar        1 UNL1     0.1169
     22 C         -8.475629   1.583758   8.431743 C.ar        1 UNL1     -0.0198
     23 C         -7.247541   0.942899   8.634611 C.ar        1 UNL1     -0.0516
     24 O         -9.920413   2.829149   6.977942 O.3        1 UNL1     -0.5068
     25 O         -6.212587   -2.984612   7.753938 O.2        1 UNL1     -0.2917
     26 O         -6.013465   -3.862092   5.2125 O.3        1 UNL1     -0.5058
     27 O         -0.403766   -0.282129   2.511436 O.3        1 UNL1     -0.3648
     28 O         0.40996   -1.919083   -0.599901 O.3        1 UNL1     -0.3841
     29 O         -2.449515   0.236713   -0.436219 O.3        1 UNL1     -0.3863
     30 O         -2.245407   -3.431638   -0.476881 O.3        1 UNL1     -0.3829
     31 H         0.586815   -1.865008   1.810557 H        1 UNL1     0.0937
     32 H         0.0   0.0   0.0 H        1 UNL1     0.0671
     33 H         -1.692308   -1.247702   -1.579411 H        1 UNL1     0.0649
     34 H         -3.733528   -2.03271   -0.27581 H        1 UNL1     0.0683
     35 H         -3.187044   -3.165171   1.829692 H        1 UNL1     0.1085
     36 H         -4.899107   -3.308712   2.985554 H        1 UNL1     0.0691
     37 H         -3.135796   0.410576   4.284719 H        1 UNL1     0.0691
     38 H         -3.931999   -1.451527   8.719948 H        1 UNL1     0.0385
     39 H         -5.563673   -1.143789   9.345631 H        1 UNL1     0.0385
     40 H         -4.378182   0.941353   8.560683 H        1 UNL1     0.0789
     41 H         -5.870776   1.480806   5.56705 H        1 UNL1     0.0623
     42 H         -8.044435   2.583375   5.218154 H        1 UNL1     0.0654
     43 H         -9.198465   1.606542   9.238526 H        1 UNL1     0.0654
     44 H         -7.076412   0.479031   9.601248 H        1 UNL1     0.0623
     45 H         -9.722966   3.754978   6.762136 H        1 UNL1     0.2921
     46 H         -5.637923   -4.376767   5.944272 H        1 UNL1     0.2922
     47 H         0.328073   0.316282   2.306069 H        1 UNL1     0.2126
     48 H         1.314894   -1.81618   -0.247426 H        1 UNL1     0.2101
     49 H         -1.995246   0.860222   -1.025005 H        1 UNL1     0.2100
     50 H         -2.406632   -3.427842   -1.443165 H        1 UNL1     0.2102
@<TRIPOS>BOND
     1     1     2    1
     2     1     6    1
     3     2     3    1
     4     3     4    1
     5     3    29    1
     6     3    33    1
     7     4     5    1
     8     5     6    1
     9     5     7    1
    10     5    35    1
    11     7     8    1
    12     8     9   ar
    13     8    13   ar
    14     9    10   ar
    15     9    36    1
    16    10    11   ar
    17    10    26    1
    18    11    12   ar
    19    11    14    1
    20    12    13   ar
    21    12    17    1
    22    13    37    1
    23    14    15    1
    24    14    25    2
    25    15    16    1
    26    15    38    1
    27    15    39    1
    28    16    17    1
    29    16    18    1
    30    16    40    1
    31    18    19   ar
    32    18    23   ar
    33    19    20   ar
    34    19    41    1
    35    20    21   ar
    36    20    42    1
    37    21    22   ar
    38    21    24    1
    39    22    23   ar
    40    22    43    1
    41    23    44    1
    42    24    45    1
    43    26    46    1
    44    27    47    1
    45    28    48    1
    46    29    49    1
    47    30    50    1
    48     1    31    1
    49     1    27    1
    50     2    32    1
    51     2    28    1
    52     4    34    1
    53     4    30    1
