@<TRIPOS>MOLECULE
*****
 50 53 0 0 0
SMALL
GASTEIGER

@<TRIPOS>ATOM
     1 C         -0.704263   -1.824218   0.973163 C.3        1 UNL1     0.1889
     2 C         -0.005859   -1.07937   -0.196184 C.3        1 UNL1     0.1342
     3 C         -0.624627   -1.333952   -1.579217 C.3        1 UNL1     0.1174
     4 C         -1.160705   -2.759101   -1.736344 C.3        1 UNL1     0.1456
     5 C         -2.00195   -3.209802   -0.52823 C.3        1 UNL1     0.2326
     6 O         -1.230793   -3.106861   0.666587 O.3        1 UNL1     -0.3076
     7 O         -3.276399   -2.54726   -0.438002 O.3        1 UNL1     -0.4605
     8 C         -4.305564   -3.285784   0.117813 C.ar        1 UNL1     0.1310
     9 C         -4.611986   -4.613926   -0.197532 C.ar        1 UNL1     0.0226
     10 C         -5.666881   -5.28298   0.434502 C.ar        1 UNL1     0.1343
     11 C         -6.426642   -4.646994   1.415382 C.ar        1 UNL1     0.1007
     12 C         -6.156396   -3.30786   1.70944 C.ar        1 UNL1     0.1389
     13 C         -5.097342   -2.634529   1.071896 C.ar        1 UNL1     0.0229
     14 C         -7.498194   -5.332387   2.174438 C.2        1 UNL1     0.1740
     15 C         -8.057869   -4.570262   3.339548 C.3        1 UNL1     0.0520
     16 C         -8.193887   -3.107953   2.938165 C.3        1 UNL1     0.1322
     17 O         -6.909275   -2.553197   2.578879 O.3        1 UNL1     -0.4828
     18 C         -9.304312   -2.850063   1.916806 C.ar        1 UNL1     -0.0067
     19 C         -9.027425   -2.0709   0.77468 C.ar        1 UNL1     -0.0516
     20 C         -10.032069   -1.776432   -0.154804 C.ar        1 UNL1     -0.0198
     21 C         -11.31643   -2.248006   0.049796 C.ar        1 UNL1     0.1169
     22 C         -11.612265   -3.045722   1.147508 C.ar        1 UNL1     -0.0198
     23 C         -10.603537   -3.355726   2.067518 C.ar        1 UNL1     -0.0516
     24 O         -12.27734   -1.909312   -0.857034 O.3        1 UNL1     -0.5068
     25 O         -7.866829   -6.479741   1.937434 O.2        1 UNL1     -0.2917
     26 O         -5.914466   -6.577252   0.080744 O.3        1 UNL1     -0.5058
     27 O         -1.645964   -1.024532   1.67065 O.3        1 UNL1     -0.3648
     28 O         1.366963   -1.508972   -0.255428 O.3        1 UNL1     -0.3841
     29 O         -1.601483   -0.337933   -1.888783 O.3        1 UNL1     -0.3863
     30 O         -0.049826   -3.668467   -1.893483 O.3        1 UNL1     -0.3829
     31 H         0.071829   -2.036992   1.716458 H        1 UNL1     0.0937
     32 H         0.0   0.0   0.0 H        1 UNL1     0.0671
     33 H         0.168298   -1.208132   -2.329656 H        1 UNL1     0.0649
     34 H         -1.766349   -2.832636   -2.646393 H        1 UNL1     0.0683
     35 H         -2.170928   -4.278974   -0.707663 H        1 UNL1     0.1085
     36 H         -4.023758   -5.180965   -0.910677 H        1 UNL1     0.0691
     37 H         -4.908177   -1.591815   1.317776 H        1 UNL1     0.0691
     38 H         -7.36154   -4.686876   4.176837 H        1 UNL1     0.0385
     39 H         -9.017843   -5.011169   3.629081 H        1 UNL1     0.0385
     40 H         -8.491318   -2.551758   3.837444 H        1 UNL1     0.0789
     41 H         -8.029437   -1.681317   0.596083 H        1 UNL1     0.0623
     42 H         -9.808801   -1.164641   -1.025364 H        1 UNL1     0.0654
     43 H         -12.611194   -3.432781   1.309485 H        1 UNL1     0.0654
     44 H         -10.867669   -3.990278   2.908008 H        1 UNL1     0.0623
     45 H         -12.364316   -0.942313   -0.864999 H        1 UNL1     0.2921
     46 H         -5.877043   -7.141046   0.869508 H        1 UNL1     0.2922
     47 H         -1.225065   -0.214746   1.991509 H        1 UNL1     0.2126
     48 H         1.780846   -1.239883   0.587202 H        1 UNL1     0.2101
     49 H         -1.165369   0.514972   -2.044187 H        1 UNL1     0.2100
     50 H         0.39122   -3.461645   -2.743433 H        1 UNL1     0.2102
@<TRIPOS>BOND
     1     1     2    1
     2     1     6    1
     3     2     3    1
     4     3     4    1
     5     3    29    1
     6     3    33    1
     7     4     5    1
     8     5     6    1
     9     5     7    1
    10     5    35    1
    11     7     8    1
    12     8     9   ar
    13     8    13   ar
    14     9    10   ar
    15     9    36    1
    16    10    11   ar
    17    10    26    1
    18    11    12   ar
    19    11    14    1
    20    12    13   ar
    21    12    17    1
    22    13    37    1
    23    14    15    1
    24    14    25    2
    25    15    16    1
    26    15    38    1
    27    15    39    1
    28    16    17    1
    29    16    18    1
    30    16    40    1
    31    18    19   ar
    32    18    23   ar
    33    19    20   ar
    34    19    41    1
    35    20    21   ar
    36    20    42    1
    37    21    22   ar
    38    21    24    1
    39    22    23   ar
    40    22    43    1
    41    23    44    1
    42    24    45    1
    43    26    46    1
    44    27    47    1
    45    28    48    1
    46    29    49    1
    47    30    50    1
    48     1    31    1
    49     1    27    1
    50     2    32    1
    51     2    28    1
    52     4    34    1
    53     4    30    1
