@<TRIPOS>MOLECULE
*****
 50 53 0 0 0
SMALL
GASTEIGER

@<TRIPOS>ATOM
     1 C         -0.326516   -1.366727   1.672199 C.3        1 UNL1     0.1889
     2 C         -0.462171   -0.979453   0.175016 C.3        1 UNL1     0.1342
     3 C         -1.90488   -0.954248   -0.35264 C.3        1 UNL1     0.1174
     4 C         -2.789287   -2.028   0.286107 C.3        1 UNL1     0.1456
     5 C         -2.632256   -2.088363   1.816487 C.3        1 UNL1     0.2326
     6 O         -1.266222   -2.314838   2.156381 O.3        1 UNL1     -0.3076
     7 O         -3.204383   -0.956305   2.496513 O.3        1 UNL1     -0.4605
     8 C         -3.720134   -1.202935   3.756157 C.ar        1 UNL1     0.1310
     9 C         -3.739042   -2.447657   4.3946 C.ar        1 UNL1     0.0226
     10 C         -4.26974   -2.59276   5.681926 C.ar        1 UNL1     0.1343
     11 C         -4.773259   -1.490998   6.372165 C.ar        1 UNL1     0.1007
     12 C         -4.797268   -0.250606   5.729021 C.ar        1 UNL1     0.1389
     13 C         -4.266008   -0.105475   4.433594 C.ar        1 UNL1     0.0229
     14 C         -5.268957   -1.571508   7.765705 C.2        1 UNL1     0.1740
     15 C         -5.563036   -0.257158   8.427181 C.3        1 UNL1     0.0520
     16 C         -6.231865   0.655771   7.408757 C.3        1 UNL1     0.1322
     17 O         -5.367232   0.877115   6.272761 O.3        1 UNL1     -0.4828
     18 C         -7.658578   0.235277   7.047648 C.ar        1 UNL1     -0.0067
     19 C         -8.038977   0.169763   5.691471 C.ar        1 UNL1     -0.0516
     20 C         -9.34887   -0.165191   5.328224 C.ar        1 UNL1     -0.0198
     21 C         -10.287442   -0.429046   6.309698 C.ar        1 UNL1     0.1169
     22 C         -9.9346   -0.405294   7.652746 C.ar        1 UNL1     -0.0198
     23 C         -8.620098   -0.088409   8.015687 C.ar        1 UNL1     -0.0516
     24 O         -11.562682   -0.714681   5.919089 O.3        1 UNL1     -0.5068
     25 O         -5.365376   -2.625283   8.389201 O.2        1 UNL1     -0.2917
     26 O         -4.259224   -3.834048   6.24821 O.3        1 UNL1     -0.5058
     27 O         -0.217737   -0.248026   2.537914 O.3        1 UNL1     -0.3648
     28 O         0.265225   -1.940472   -0.612412 O.3        1 UNL1     -0.3841
     29 O         -2.461475   0.357486   -0.244522 O.3        1 UNL1     -0.3863
     30 O         -2.44416   -3.316653   -0.26702 O.3        1 UNL1     -0.3829
     31 H         0.634342   -1.882517   1.776081 H        1 UNL1     0.0937
     32 H         0.0   0.0   0.0 H        1 UNL1     0.0671
     33 H         -1.871774   -1.169269   -1.429854 H        1 UNL1     0.0649
     34 H         -3.840235   -1.843478   0.037388 H        1 UNL1     0.0683
     35 H         -3.186275   -2.990784   2.103852 H        1 UNL1     0.1085
     36 H         -3.312051   -3.331531   3.933551 H        1 UNL1     0.0691
     37 H         -4.297635   0.870657   3.954368 H        1 UNL1     0.0691
     38 H         -4.610571   0.16241   8.76821 H        1 UNL1     0.0385
     39 H         -6.194371   -0.430582   9.305315 H        1 UNL1     0.0385
     40 H         -6.329936   1.645002   7.876008 H        1 UNL1     0.0789
     41 H         -7.32319   0.381412   4.902481 H        1 UNL1     0.0623
     42 H         -9.632957   -0.200755   4.279395 H        1 UNL1     0.0654
     43 H         -10.657877   -0.624968   8.42897 H        1 UNL1     0.0654
     44 H         -8.376781   -0.089499   9.073818 H        1 UNL1     0.0623
     45 H         -11.922098   0.059142   5.455694 H        1 UNL1     0.2921
     46 H         -3.788414   -3.798956   7.095865 H        1 UNL1     0.2922
     47 H         0.511586   0.322465   2.257758 H        1 UNL1     0.2126
     48 H         1.205415   -1.851682   -0.363633 H        1 UNL1     0.2101
     49 H         -2.0305   0.952166   -0.878881 H        1 UNL1     0.2100
     50 H         -2.686009   -3.31185   -1.216335 H        1 UNL1     0.2102
@<TRIPOS>BOND
     1     1     2    1
     2     1     6    1
     3     2     3    1
     4     3     4    1
     5     3    29    1
     6     3    33    1
     7     4     5    1
     8     5     6    1
     9     5     7    1
    10     5    35    1
    11     7     8    1
    12     8     9   ar
    13     8    13   ar
    14     9    10   ar
    15     9    36    1
    16    10    11   ar
    17    10    26    1
    18    11    12   ar
    19    11    14    1
    20    12    13   ar
    21    12    17    1
    22    13    37    1
    23    14    15    1
    24    14    25    2
    25    15    16    1
    26    15    38    1
    27    15    39    1
    28    16    17    1
    29    16    18    1
    30    16    40    1
    31    18    19   ar
    32    18    23   ar
    33    19    20   ar
    34    19    41    1
    35    20    21   ar
    36    20    42    1
    37    21    22   ar
    38    21    24    1
    39    22    23   ar
    40    22    43    1
    41    23    44    1
    42    24    45    1
    43    26    46    1
    44    27    47    1
    45    28    48    1
    46    29    49    1
    47    30    50    1
    48     1    31    1
    49     1    27    1
    50     2    32    1
    51     2    28    1
    52     4    34    1
    53     4    30    1
