@<TRIPOS>MOLECULE
*****
 50 53 0 0 0
SMALL
GASTEIGER

@<TRIPOS>ATOM
     1 C         0.907246   -1.930765   -0.468889 C.3        1 UNL1     0.1889
     2 C         -0.260782   -0.911569   -0.551902 C.3        1 UNL1     0.1342
     3 C         -1.609713   -1.439021   -0.039415 C.3        1 UNL1     0.1174
     4 C         -1.815337   -2.927185   -0.33302 C.3        1 UNL1     0.1456
     5 C         -0.580694   -3.775171   0.023267 C.3        1 UNL1     0.2326
     6 O         0.560848   -3.291455   -0.680843 O.3        1 UNL1     -0.3076
     7 O         -0.360601   -3.900181   1.440043 O.3        1 UNL1     -0.4605
     8 C         0.209867   -5.087467   1.862471 C.ar        1 UNL1     0.1310
     9 C         -0.353599   -6.358312   1.705126 C.ar        1 UNL1     0.0226
     10 C         0.31203   -7.50562   2.152926 C.ar        1 UNL1     0.1343
     11 C         1.569323   -7.411909   2.748134 C.ar        1 UNL1     0.1007
     12 C         2.123865   -6.14486   2.947771 C.ar        1 UNL1     0.1389
     13 C         1.453191   -4.99119   2.499806 C.ar        1 UNL1     0.0229
     14 C         2.35398   -8.597571   3.163675 C.2        1 UNL1     0.1740
     15 C         3.770595   -8.32624   3.577351 C.3        1 UNL1     0.0520
     16 C         3.795986   -7.043054   4.396343 C.3        1 UNL1     0.1322
     17 O         3.305004   -5.928755   3.618946 O.3        1 UNL1     -0.4828
     18 C         3.156089   -7.182285   5.77977 C.ar        1 UNL1     -0.0067
     19 C         3.28104   -6.129755   6.709705 C.ar        1 UNL1     -0.0516
     20 C         2.748692   -6.243814   7.999496 C.ar        1 UNL1     -0.0198
     21 C         2.09704   -7.405533   8.373107 C.ar        1 UNL1     0.1169
     22 C         1.928812   -8.446173   7.468891 C.ar        1 UNL1     -0.0198
     23 C         2.444956   -8.325066   6.173135 C.ar        1 UNL1     -0.0516
     24 O         1.624803   -7.495283   9.649562 O.3        1 UNL1     -0.5068
     25 O         1.924299   -9.746728   3.106257 O.2        1 UNL1     -0.2917
     26 O         -0.292407   -8.715112   1.97025 O.3        1 UNL1     -0.5058
     27 O         1.716868   -1.770047   0.685004 O.3        1 UNL1     -0.3648
     28 O         -0.442743   -0.53763   -1.930222 O.3        1 UNL1     -0.3841
     29 O         -1.7883   -1.117521   1.341482 O.3        1 UNL1     -0.3863
     30 O         -2.105581   -3.09727   -1.737484 O.3        1 UNL1     -0.3829
     31 H         1.579618   -1.704682   -1.303683 H        1 UNL1     0.0937
     32 H         0.0   0.0   0.0 H        1 UNL1     0.0671
     33 H         -2.405095   -0.897491   -0.570294 H        1 UNL1     0.0649
     34 H         -2.683222   -3.3013   0.22125 H        1 UNL1     0.0683
     35 H         -0.812677   -4.765787   -0.387515 H        1 UNL1     0.1085
     36 H         -1.302499   -6.50282   1.200323 H        1 UNL1     0.0691
     37 H         1.905747   -4.01635   2.668254 H        1 UNL1     0.0691
     38 H         4.368263   -8.224512   2.665226 H        1 UNL1     0.0385
     39 H         4.150583   -9.184946   4.141277 H        1 UNL1     0.0385
     40 H         4.850427   -6.801461   4.586882 H        1 UNL1     0.0789
     41 H         3.796038   -5.211214   6.443791 H        1 UNL1     0.0623
     42 H         2.861952   -5.429907   8.711353 H        1 UNL1     0.0654
     43 H         1.40706   -9.354343   7.746221 H        1 UNL1     0.0654
     44 H         2.285957   -9.153384   5.489429 H        1 UNL1     0.0623
     45 H         2.097149   -6.847746   10.197559 H        1 UNL1     0.2921
     46 H         0.35738   -9.354661   1.638337 H        1 UNL1     0.2922
     47 H         1.359824   -2.288711   1.419421 H        1 UNL1     0.2126
     48 H         0.20684   0.167307   -2.116871 H        1 UNL1     0.2101
     49 H         -1.552354   -1.88154   1.891391 H        1 UNL1     0.2100
     50 H         -2.572997   -2.29433   -2.048163 H        1 UNL1     0.2102
@<TRIPOS>BOND
     1     1     2    1
     2     1     6    1
     3     2     3    1
     4     3     4    1
     5     3    29    1
     6     3    33    1
     7     4     5    1
     8     5     6    1
     9     5     7    1
    10     5    35    1
    11     7     8    1
    12     8     9   ar
    13     8    13   ar
    14     9    10   ar
    15     9    36    1
    16    10    11   ar
    17    10    26    1
    18    11    12   ar
    19    11    14    1
    20    12    13   ar
    21    12    17    1
    22    13    37    1
    23    14    15    1
    24    14    25    2
    25    15    16    1
    26    15    38    1
    27    15    39    1
    28    16    17    1
    29    16    18    1
    30    16    40    1
    31    18    19   ar
    32    18    23   ar
    33    19    20   ar
    34    19    41    1
    35    20    21   ar
    36    20    42    1
    37    21    22   ar
    38    21    24    1
    39    22    23   ar
    40    22    43    1
    41    23    44    1
    42    24    45    1
    43    26    46    1
    44    27    47    1
    45    28    48    1
    46    29    49    1
    47    30    50    1
    48     1    31    1
    49     1    27    1
    50     2    32    1
    51     2    28    1
    52     4    34    1
    53     4    30    1
