@<TRIPOS>MOLECULE
*****
 50 53 0 0 0
SMALL
GASTEIGER

@<TRIPOS>ATOM
     1 C         -0.004916   -1.110245   1.880994 C.3        1 UNL1     0.1889
     2 C         -0.266626   -1.003377   0.354551 C.3        1 UNL1     0.1342
     3 C         -1.70829   -1.31909   -0.072528 C.3        1 UNL1     0.1174
     4 C         -2.354534   -2.412326   0.78206 C.3        1 UNL1     0.1456
     5 C         -2.130847   -2.192668   2.289401 C.3        1 UNL1     0.2326
     6 O         -0.73453   -2.116563   2.567567 O.3        1 UNL1     -0.3076
     7 O         -2.875565   -1.083056   2.8237 O.3        1 UNL1     -0.4605
     8 C         -3.278844   -1.20201   4.141556 C.ar        1 UNL1     0.1310
     9 C         -3.867134   -2.337119   4.70966 C.ar        1 UNL1     0.0226
     10 C         -4.22616   -2.365987   6.062498 C.ar        1 UNL1     0.1343
     11 C         -3.983549   -1.267793   6.886481 C.ar        1 UNL1     0.1007
     12 C         -3.434243   -0.113855   6.321261 C.ar        1 UNL1     0.1389
     13 C         -3.075761   -0.084142   4.960365 C.ar        1 UNL1     0.0229
     14 C         -4.265695   -1.274135   8.340616 C.2        1 UNL1     0.1740
     15 C         -3.738873   -0.098103   9.109354 C.3        1 UNL1     0.0520
     16 C         -3.951859   1.157443   8.274969 C.3        1 UNL1     0.1322
     17 O         -3.252549   1.06027   7.014575 O.3        1 UNL1     -0.4828
     18 C         -5.41915   1.576426   8.155668 C.ar        1 UNL1     -0.0067
     19 C         -5.950111   1.885533   6.886516 C.ar        1 UNL1     -0.0516
     20 C         -7.274508   2.317602   6.747765 C.ar        1 UNL1     -0.0198
     21 C         -8.074128   2.451396   7.868718 C.ar        1 UNL1     0.1169
     22 C         -7.590007   2.122575   9.128218 C.ar        1 UNL1     -0.0198
     23 C         -6.271283   1.672831   9.265159 C.ar        1 UNL1     -0.0516
     24 O         -9.347026   2.911039   7.698832 O.3        1 UNL1     -0.5068
     25 O         -4.820847   -2.20549   8.917564 O.2        1 UNL1     -0.2917
     26 O         -4.797065   -3.503306   6.554592 O.3        1 UNL1     -0.5058
     27 O         -0.071367   0.13658   2.55464 O.3        1 UNL1     -0.3648
     28 O         0.594951   -1.937242   -0.322419 O.3        1 UNL1     -0.3841
     29 O         -2.492685   -0.125997   -0.130733 O.3        1 UNL1     -0.3863
     30 O         -1.799042   -3.693089   0.412244 O.3        1 UNL1     -0.3829
     31 H         1.037823   -1.424895   1.99833 H        1 UNL1     0.0937
     32 H         0.0   0.0   0.0 H        1 UNL1     0.0671
     33 H         -1.677188   -1.698401   -1.103486 H        1 UNL1     0.0649
     34 H         -3.430189   -2.458801   0.579063 H        1 UNL1     0.0683
     35 H         -2.497599   -3.119027   2.749001 H        1 UNL1     0.1085
     36 H         -4.030581   -3.242543   4.13554 H        1 UNL1     0.0691
     37 H         -2.650777   0.826766   4.544277 H        1 UNL1     0.0691
     38 H         -2.673697   -0.273515   9.294169 H        1 UNL1     0.0385
     39 H         -4.249502   -0.043829   10.076872 H        1 UNL1     0.0385
     40 H         -3.455519   1.983955   8.80132 H        1 UNL1     0.0789
     41 H         -5.340088   1.797422   5.992223 H        1 UNL1     0.0623
     42 H         -7.668703   2.56431   5.765036 H        1 UNL1     0.0654
     43 H         -8.212211   2.209303   10.01097 H        1 UNL1     0.0654
     44 H         -5.929419   1.414705   10.262829 H        1 UNL1     0.0623
     45 H         -9.30283   3.800864   7.312858 H        1 UNL1     0.2921
     46 H         -4.27386   -3.829991   7.303556 H        1 UNL1     0.2922
     47 H         0.542175   0.767387   2.152758 H        1 UNL1     0.2126
     48 H         1.511928   -1.659796   -0.132921 H        1 UNL1     0.2101
     49 H         -2.19775   0.427035   -0.871653 H        1 UNL1     0.2100
     50 H         -2.068925   -3.883835   -0.509977 H        1 UNL1     0.2102
@<TRIPOS>BOND
     1     1     2    1
     2     1     6    1
     3     2     3    1
     4     3     4    1
     5     3    29    1
     6     3    33    1
     7     4     5    1
     8     5     6    1
     9     5     7    1
    10     5    35    1
    11     7     8    1
    12     8     9   ar
    13     8    13   ar
    14     9    10   ar
    15     9    36    1
    16    10    11   ar
    17    10    26    1
    18    11    12   ar
    19    11    14    1
    20    12    13   ar
    21    12    17    1
    22    13    37    1
    23    14    15    1
    24    14    25    2
    25    15    16    1
    26    15    38    1
    27    15    39    1
    28    16    17    1
    29    16    18    1
    30    16    40    1
    31    18    19   ar
    32    18    23   ar
    33    19    20   ar
    34    19    41    1
    35    20    21   ar
    36    20    42    1
    37    21    22   ar
    38    21    24    1
    39    22    23   ar
    40    22    43    1
    41    23    44    1
    42    24    45    1
    43    26    46    1
    44    27    47    1
    45    28    48    1
    46    29    49    1
    47    30    50    1
    48     1    31    1
    49     1    27    1
    50     2    32    1
    51     2    28    1
    52     4    34    1
    53     4    30    1
