@<TRIPOS>MOLECULE
*****
 50 53 0 0 0
SMALL
GASTEIGER

@<TRIPOS>ATOM
     1 C         -1.376706   -0.566769   -1.598205 C.3        1 UNL1     0.1889
     2 C         -0.810464   0.458923   -0.579742 C.3        1 UNL1     0.1342
     3 C         -1.85091   1.042471   0.388457 C.3        1 UNL1     0.1174
     4 C         -3.22712   1.222435   -0.257126 C.3        1 UNL1     0.1456
     5 C         -3.670551   -0.01633   -1.056623 C.3        1 UNL1     0.2326
     6 O         -2.699467   -0.324248   -2.054146 O.3        1 UNL1     -0.3076
     7 O         -4.006976   -1.143505   -0.227397 O.3        1 UNL1     -0.4605
     8 C         -3.705959   -2.389657   -0.747033 C.ar        1 UNL1     0.1310
     9 C         -4.299748   -3.595052   -0.357499 C.ar        1 UNL1     0.0226
     10 C         -3.93801   -4.807124   -0.957441 C.ar        1 UNL1     0.1343
     11 C         -2.989876   -4.840122   -1.979103 C.ar        1 UNL1     0.1007
     12 C         -2.3603   -3.648434   -2.34829 C.ar        1 UNL1     0.1389
     13 C         -2.722294   -2.430201   -1.743065 C.ar        1 UNL1     0.0229
     14 C         -2.631076   -6.080466   -2.705025 C.2        1 UNL1     0.1740
     15 C         -1.764985   -5.896325   -3.91644 C.3        1 UNL1     0.0520
     16 C         -0.714249   -4.840518   -3.601506 C.3        1 UNL1     0.1322
     17 O         -1.337356   -3.581182   -3.26553 O.3        1 UNL1     -0.4828
     18 C         0.349417   -5.307794   -2.605017 C.ar        1 UNL1     -0.0067
     19 C         0.181828   -6.539904   -1.940162 C.ar        1 UNL1     -0.0516
     20 C         1.111542   -6.974615   -0.987995 C.ar        1 UNL1     -0.0198
     21 C         2.2067   -6.184721   -0.687121 C.ar        1 UNL1     0.1169
     22 C         2.41671   -4.982087   -1.349243 C.ar        1 UNL1     -0.0198
     23 C         1.496886   -4.555813   -2.314784 C.ar        1 UNL1     -0.0516
     24 O         3.070784   -6.623072   0.272883 O.3        1 UNL1     -0.5068
     25 O         -3.065396   -7.189347   -2.404635 O.2        1 UNL1     -0.2917
     26 O         -4.554029   -5.947444   -0.53109 O.3        1 UNL1     -0.5058
     27 O         -1.199542   -1.916604   -1.199025 O.3        1 UNL1     -0.3648
     28 O         -0.240378   1.56042   -1.310776 O.3        1 UNL1     -0.3841
     29 O         -1.901768   0.281584   1.597008 O.3        1 UNL1     -0.3863
     30 O         -3.18803   2.359407   -1.146765 O.3        1 UNL1     -0.3829
     31 H         -0.771485   -0.47251   -2.506446 H        1 UNL1     0.0937
     32 H         0.0   0.0   0.0 H        1 UNL1     0.0671
     33 H         -1.506949   2.042458   0.687514 H        1 UNL1     0.0649
     34 H         -3.9752   1.443085   0.512348 H        1 UNL1     0.0683
     35 H         -4.573494   0.317776   -1.582879 H        1 UNL1     0.1085
     36 H         -5.083196   -3.628848   0.391626 H        1 UNL1     0.0691
     37 H         -2.216399   -1.516506   -2.047572 H        1 UNL1     0.0691
     38 H         -2.411723   -5.576441   -4.740413 H        1 UNL1     0.0385
     39 H         -1.316973   -6.858544   -4.186992 H        1 UNL1     0.0385
     40 H         -0.169885   -4.637431   -4.533677 H        1 UNL1     0.0789
     41 H         -0.674221   -7.173928   -2.151926 H        1 UNL1     0.0623
     42 H         0.964932   -7.92109   -0.473503 H        1 UNL1     0.0654
     43 H         3.278873   -4.362834   -1.132195 H        1 UNL1     0.0654
     44 H         1.697919   -3.616062   -2.820055 H        1 UNL1     0.0623
     45 H         2.56651   -6.792655   1.085082 H        1 UNL1     0.2921
     46 H         -5.203096   -6.231712   -1.193899 H        1 UNL1     0.2922
     47 H         -0.282743   -2.068714   -0.93032 H        1 UNL1     0.2126
     48 H         0.602308   1.782414   -0.869945 H        1 UNL1     0.2101
     49 H         -1.008158   -0.004701   1.844589 H        1 UNL1     0.2100
     50 H         -4.110797   2.592396   -1.378996 H        1 UNL1     0.2102
@<TRIPOS>BOND
     1     1     2    1
     2     1     6    1
     3     2     3    1
     4     3     4    1
     5     3    29    1
     6     3    33    1
     7     4     5    1
     8     5     6    1
     9     5     7    1
    10     5    35    1
    11     7     8    1
    12     8     9   ar
    13     8    13   ar
    14     9    10   ar
    15     9    36    1
    16    10    11   ar
    17    10    26    1
    18    11    12   ar
    19    11    14    1
    20    12    13   ar
    21    12    17    1
    22    13    37    1
    23    14    15    1
    24    14    25    2
    25    15    16    1
    26    15    38    1
    27    15    39    1
    28    16    17    1
    29    16    18    1
    30    16    40    1
    31    18    19   ar
    32    18    23   ar
    33    19    20   ar
    34    19    41    1
    35    20    21   ar
    36    20    42    1
    37    21    22   ar
    38    21    24    1
    39    22    23   ar
    40    22    43    1
    41    23    44    1
    42    24    45    1
    43    26    46    1
    44    27    47    1
    45    28    48    1
    46    29    49    1
    47    30    50    1
    48     1    31    1
    49     1    27    1
    50     2    32    1
    51     2    28    1
    52     4    34    1
    53     4    30    1
