@<TRIPOS>MOLECULE
*****
 50 53 0 0 0
SMALL
GASTEIGER

@<TRIPOS>ATOM
     1 C         -2.091176   -0.616821   0.131606 C.3        1 UNL1     0.1889
     2 C         -0.880219   -0.044579   -0.653291 C.3        1 UNL1     0.1342
     3 C         -1.11492   1.341482   -1.273143 C.3        1 UNL1     0.1174
     4 C         -2.554551   1.540684   -1.753661 C.3        1 UNL1     0.1456
     5 C         -3.592792   1.083147   -0.712949 C.3        1 UNL1     0.2326
     6 O         -3.374548   -0.285401   -0.377817 O.3        1 UNL1     -0.3076
     7 O         -3.667126   1.942874   0.438861 O.3        1 UNL1     -0.4605
     8 C         -4.893804   1.998268   1.075822 C.ar        1 UNL1     0.1310
     9 C         -5.363078   3.07321   1.838438 C.ar        1 UNL1     0.0226
     10 C         -6.630868   3.041029   2.431375 C.ar        1 UNL1     0.1343
     11 C         -7.470483   1.94186   2.256117 C.ar        1 UNL1     0.1007
     12 C         -6.996875   0.845282   1.530861 C.ar        1 UNL1     0.1389
     13 C         -5.721047   0.876791   0.936974 C.ar        1 UNL1     0.0229
     14 C         -8.851315   1.890072   2.789759 C.2        1 UNL1     0.1740
     15 C         -9.686048   0.735049   2.31998 C.3        1 UNL1     0.0520
     16 C         -8.810828   -0.510309   2.287857 C.3        1 UNL1     0.1322
     17 O         -7.696099   -0.330542   1.386673 O.3        1 UNL1     -0.4828
     18 C         -8.427301   -1.02985   3.675556 C.ar        1 UNL1     -0.0067
     19 C         -7.074429   -1.304735   3.962591 C.ar        1 UNL1     -0.0516
     20 C         -6.695301   -1.82556   5.205558 C.ar        1 UNL1     -0.0198
     21 C         -7.658222   -2.082203   6.165113 C.ar        1 UNL1     0.1169
     22 C         -8.994546   -1.790624   5.924157 C.ar        1 UNL1     -0.0198
     23 C         -9.371708   -1.252522   4.687933 C.ar        1 UNL1     -0.0516
     24 O         -7.255923   -2.62487   7.350047 O.3        1 UNL1     -0.5068
     25 O         -9.332527   2.763988   3.506132 O.2        1 UNL1     -0.2917
     26 O         -7.028466   4.121401   3.163699 O.3        1 UNL1     -0.5058
     27 O         -2.011241   -0.399762   1.53135 O.3        1 UNL1     -0.3648
     28 O         -0.566439   -0.947664   -1.729713 O.3        1 UNL1     -0.3841
     29 O         -0.679676   2.373899   -0.38612 O.3        1 UNL1     -0.3863
     30 O         -2.755803   0.790122   -2.970971 O.3        1 UNL1     -0.3829
     31 H         -2.046733   -1.706165   0.024685 H        1 UNL1     0.0937
     32 H         0.0   0.0   0.0 H        1 UNL1     0.0671
     33 H         -0.469681   1.426437   -2.158676 H        1 UNL1     0.0649
     34 H         -2.72552   2.595523   -1.995499 H        1 UNL1     0.0683
     35 H         -4.546995   1.131157   -1.252458 H        1 UNL1     0.1085
     36 H         -4.780886   3.979306   1.965573 H        1 UNL1     0.0691
     37 H         -5.375263   0.009761   0.378239 H        1 UNL1     0.0691
     38 H         -10.059431   0.98127   1.320236 H        1 UNL1     0.0385
     39 H         -10.546665   0.619185   2.987581 H        1 UNL1     0.0385
     40 H         -9.406185   -1.31268   1.831488 H        1 UNL1     0.0789
     41 H         -6.300686   -1.120612   3.222949 H        1 UNL1     0.0623
     42 H         -5.650283   -2.044477   5.410557 H        1 UNL1     0.0654
     43 H         -9.754929   -1.97362   6.673984 H        1 UNL1     0.0654
     44 H         -10.423103   -1.026985   4.537776 H        1 UNL1     0.0623
     45 H         -6.294899   -2.51114   7.428882 H        1 UNL1     0.2921
     46 H         -7.971617   4.288086   3.008478 H        1 UNL1     0.2922
     47 H         -2.709017   -0.891253   1.986768 H        1 UNL1     0.2126
     48 H         -1.06893   -1.768087   -1.56196 H        1 UNL1     0.2101
     49 H         0.172203   2.729152   -0.685939 H        1 UNL1     0.2100
     50 H         -3.601403   0.302454   -2.88819 H        1 UNL1     0.2102
@<TRIPOS>BOND
     1     1     2    1
     2     1     6    1
     3     2     3    1
     4     3     4    1
     5     3    29    1
     6     3    33    1
     7     4     5    1
     8     5     6    1
     9     5     7    1
    10     5    35    1
    11     7     8    1
    12     8     9   ar
    13     8    13   ar
    14     9    10   ar
    15     9    36    1
    16    10    11   ar
    17    10    26    1
    18    11    12   ar
    19    11    14    1
    20    12    13   ar
    21    12    17    1
    22    13    37    1
    23    14    15    1
    24    14    25    2
    25    15    16    1
    26    15    38    1
    27    15    39    1
    28    16    17    1
    29    16    18    1
    30    16    40    1
    31    18    19   ar
    32    18    23   ar
    33    19    20   ar
    34    19    41    1
    35    20    21   ar
    36    20    42    1
    37    21    22   ar
    38    21    24    1
    39    22    23   ar
    40    22    43    1
    41    23    44    1
    42    24    45    1
    43    26    46    1
    44    27    47    1
    45    28    48    1
    46    29    49    1
    47    30    50    1
    48     1    31    1
    49     1    27    1
    50     2    32    1
    51     2    28    1
    52     4    34    1
    53     4    30    1
