@<TRIPOS>MOLECULE
*****
 50 53 0 0 0
SMALL
GASTEIGER

@<TRIPOS>ATOM
     1 C         0.619832   -1.442515   -1.518474 C.3        1 UNL1     0.1889
     2 C         0.333392   -1.044188   -0.045644 C.3        1 UNL1     0.1342
     3 C         1.519565   -1.233812   0.912219 C.3        1 UNL1     0.1174
     4 C         2.379937   -2.449325   0.558094 C.3        1 UNL1     0.1456
     5 C         2.708412   -2.522399   -0.944281 C.3        1 UNL1     0.2326
     6 O         1.502753   -2.538864   -1.705191 O.3        1 UNL1     -0.3076
     7 O         3.637347   -1.512192   -1.377735 O.3        1 UNL1     -0.4605
     8 C         3.801815   -1.386641   -2.745475 C.ar        1 UNL1     0.1310
     9 C         2.774336   -1.161541   -3.667928 C.ar        1 UNL1     0.0226
     10 C         3.044995   -1.031421   -5.035303 C.ar        1 UNL1     0.1343
     11 C         4.353751   -1.099581   -5.51107 C.ar        1 UNL1     0.1007
     12 C         5.383693   -1.364925   -4.604651 C.ar        1 UNL1     0.1389
     13 C         5.110987   -1.498354   -3.230148 C.ar        1 UNL1     0.0229
     14 C         4.705514   -0.885692   -6.933979 C.2        1 UNL1     0.1740
     15 C         6.172133   -0.7728   -7.230343 C.3        1 UNL1     0.0520
     16 C         6.914847   -1.798179   -6.384807 C.3        1 UNL1     0.1322
     17 O         6.693506   -1.559267   -4.977328 O.3        1 UNL1     -0.4828
     18 C         6.683304   -3.245185   -6.826718 C.ar        1 UNL1     -0.0067
     19 C         7.778252   -4.130595   -6.899882 C.ar        1 UNL1     -0.0516
     20 C         7.609054   -5.446955   -7.345448 C.ar        1 UNL1     -0.0198
     21 C         6.354108   -5.886822   -7.726835 C.ar        1 UNL1     0.1169
     22 C         5.250655   -5.048579   -7.634208 C.ar        1 UNL1     -0.0198
     23 C         5.416382   -3.737779   -7.171182 C.ar        1 UNL1     -0.0516
     24 O         6.234506   -7.163656   -8.191368 O.3        1 UNL1     -0.5068
     25 O         3.870346   -0.727024   -7.820434 O.2        1 UNL1     -0.2917
     26 O         1.997925   -0.814119   -5.882656 O.3        1 UNL1     -0.5058
     27 O         0.968636   -0.34267   -2.343982 O.3        1 UNL1     -0.3648
     28 O         -0.747844   -1.858362   0.445023 O.3        1 UNL1     -0.3841
     29 O         2.281089   -0.029485   1.020886 O.3        1 UNL1     -0.3863
     30 O         1.678847   -3.653116   0.938949 O.3        1 UNL1     -0.3829
     31 H         -0.327223   -1.802623   -1.934993 H        1 UNL1     0.0937
     32 H         0.0   0.0   0.0 H        1 UNL1     0.0671
     33 H         1.113435   -1.413907   1.917377 H        1 UNL1     0.0649
     34 H         3.313169   -2.426825   1.131655 H        1 UNL1     0.0683
     35 H         3.175442   -3.50785   -1.065313 H        1 UNL1     0.1085
     36 H         1.74281   -1.043001   -3.354843 H        1 UNL1     0.0691
     37 H         5.930346   -1.705757   -2.545218 H        1 UNL1     0.0691
     38 H         6.483367   0.246654   -6.978601 H        1 UNL1     0.0385
     39 H         6.334344   -0.924943   -8.302872 H        1 UNL1     0.0385
     40 H         7.989022   -1.618923   -6.52811 H        1 UNL1     0.0789
     41 H         8.775036   -3.806769   -6.61491 H        1 UNL1     0.0623
     42 H         8.463282   -6.116514   -7.408678 H        1 UNL1     0.0654
     43 H         4.260856   -5.387393   -7.916013 H        1 UNL1     0.0654
     44 H         4.530687   -3.113634   -7.101659 H        1 UNL1     0.0623
     45 H         5.337258   -7.478594   -7.995212 H        1 UNL1     0.2921
     46 H         2.141817   -1.304823   -6.707226 H        1 UNL1     0.2922
     47 H         1.043755   0.463162   -1.814027 H        1 UNL1     0.2126
     48 H         -0.834689   -1.663291   1.397986 H        1 UNL1     0.2101
     49 H         3.155458   -0.224455   1.394062 H        1 UNL1     0.2100
     50 H         2.323742   -4.39056   0.938514 H        1 UNL1     0.2102
@<TRIPOS>BOND
     1     1     2    1
     2     1     6    1
     3     2     3    1
     4     3     4    1
     5     3    29    1
     6     3    33    1
     7     4     5    1
     8     5     6    1
     9     5     7    1
    10     5    35    1
    11     7     8    1
    12     8     9   ar
    13     8    13   ar
    14     9    10   ar
    15     9    36    1
    16    10    11   ar
    17    10    26    1
    18    11    12   ar
    19    11    14    1
    20    12    13   ar
    21    12    17    1
    22    13    37    1
    23    14    15    1
    24    14    25    2
    25    15    16    1
    26    15    38    1
    27    15    39    1
    28    16    17    1
    29    16    18    1
    30    16    40    1
    31    18    19   ar
    32    18    23   ar
    33    19    20   ar
    34    19    41    1
    35    20    21   ar
    36    20    42    1
    37    21    22   ar
    38    21    24    1
    39    22    23   ar
    40    22    43    1
    41    23    44    1
    42    24    45    1
    43    26    46    1
    44    27    47    1
    45    28    48    1
    46    29    49    1
    47    30    50    1
    48     1    31    1
    49     1    27    1
    50     2    32    1
    51     2    28    1
    52     4    34    1
    53     4    30    1
