@<TRIPOS>MOLECULE
*****
 50 53 0 0 0
SMALL
GASTEIGER

@<TRIPOS>ATOM
     1 C         -0.33903   -1.333288   1.696528 C.3        1 UNL1     0.1889
     2 C         -0.465702   -0.974698   0.191434 C.3        1 UNL1     0.1342
     3 C         -1.905517   -0.956008   -0.344335 C.3        1 UNL1     0.1174
     4 C         -2.79616   -2.014937   0.310295 C.3        1 UNL1     0.1456
     5 C         -2.647418   -2.046091   1.842375 C.3        1 UNL1     0.2326
     6 O         -1.283816   -2.269448   2.1939 O.3        1 UNL1     -0.3076
     7 O         -3.220129   -0.89963   2.497319 O.3        1 UNL1     -0.4605
     8 C         -3.73303   -1.118071   3.763314 C.ar        1 UNL1     0.1310
     9 C         -3.513477   -0.302258   4.878458 C.ar        1 UNL1     0.0226
     10 C         -4.092673   -0.599411   6.117866 C.ar        1 UNL1     0.1343
     11 C         -4.925589   -1.707566   6.266482 C.ar        1 UNL1     0.1007
     12 C         -5.119284   -2.552522   5.170437 C.ar        1 UNL1     0.1389
     13 C         -4.534662   -2.254981   3.924999 C.ar        1 UNL1     0.0229
     14 C         -5.630366   -2.021442   7.530968 C.2        1 UNL1     0.1740
     15 C         -6.654621   -3.114955   7.449235 C.3        1 UNL1     0.0520
     16 C         -6.106049   -4.223543   6.56151 C.3        1 UNL1     0.1322
     17 O         -5.831444   -3.727777   5.232646 O.3        1 UNL1     -0.4828
     18 C         -4.955453   -5.00853   7.196057 C.ar        1 UNL1     -0.0067
     19 C         -3.780215   -5.238105   6.451528 C.ar        1 UNL1     -0.0516
     20 C         -2.728129   -5.992469   6.984455 C.ar        1 UNL1     -0.0198
     21 C         -2.841796   -6.527658   8.255077 C.ar        1 UNL1     0.1169
     22 C         -3.97283   -6.290868   9.025487 C.ar        1 UNL1     -0.0198
     23 C         -5.017415   -5.521062   8.499847 C.ar        1 UNL1     -0.0516
     24 O         -1.81253   -7.288605   8.726217 O.3        1 UNL1     -0.5068
     25 O         -5.464996   -1.390631   8.571745 O.2        1 UNL1     -0.2917
     26 O         -3.838009   0.235947   7.166154 O.3        1 UNL1     -0.5058
     27 O         -0.231868   -0.198335   2.54103 O.3        1 UNL1     -0.3648
     28 O         0.263301   -1.952627   -0.573364 O.3        1 UNL1     -0.3841
     29 O         -2.459181   0.358993   -0.264575 O.3        1 UNL1     -0.3863
     30 O         -2.451536   -3.314927   -0.215964 O.3        1 UNL1     -0.3829
     31 H         0.619885   -1.849432   1.815508 H        1 UNL1     0.0937
     32 H         0.0   0.0   0.0 H        1 UNL1     0.0671
     33 H         -1.867265   -1.191907   -1.416999 H        1 UNL1     0.0649
     34 H         -3.845277   -1.832568   0.052427 H        1 UNL1     0.0683
     35 H         -3.205357   -2.941363   2.144155 H        1 UNL1     0.1085
     36 H         -2.921431   0.604094   4.814205 H        1 UNL1     0.0691
     37 H         -4.700026   -2.929378   3.08754 H        1 UNL1     0.0691
     38 H         -7.566795   -2.683195   7.023737 H        1 UNL1     0.0385
     39 H         -6.883135   -3.46901   8.460276 H        1 UNL1     0.0385
     40 H         -6.913558   -4.954654   6.420354 H        1 UNL1     0.0789
     41 H         -3.670299   -4.836526   5.448381 H        1 UNL1     0.0623
     42 H         -1.83192   -6.172482   6.395885 H        1 UNL1     0.0654
     43 H         -4.065956   -6.692613   10.027404 H        1 UNL1     0.0654
     44 H         -5.881746   -5.347293   9.13355 H        1 UNL1     0.0623
     45 H         -1.705013   -8.055519   8.140555 H        1 UNL1     0.2921
     46 H         -4.675746   0.565238   7.528337 H        1 UNL1     0.2922
     47 H         0.511574   0.355578   2.264743 H        1 UNL1     0.2126
     48 H         1.198697   -1.878853   -0.30258 H        1 UNL1     0.2101
     49 H         -2.01944   0.941562   -0.904134 H        1 UNL1     0.2100
     50 H         -2.688328   -3.327866   -1.166477 H        1 UNL1     0.2102
@<TRIPOS>BOND
     1     1     2    1
     2     1     6    1
     3     2     3    1
     4     3     4    1
     5     3    29    1
     6     3    33    1
     7     4     5    1
     8     5     6    1
     9     5     7    1
    10     5    35    1
    11     7     8    1
    12     8     9   ar
    13     8    13   ar
    14     9    10   ar
    15     9    36    1
    16    10    11   ar
    17    10    26    1
    18    11    12   ar
    19    11    14    1
    20    12    13   ar
    21    12    17    1
    22    13    37    1
    23    14    15    1
    24    14    25    2
    25    15    16    1
    26    15    38    1
    27    15    39    1
    28    16    17    1
    29    16    18    1
    30    16    40    1
    31    18    19   ar
    32    18    23   ar
    33    19    20   ar
    34    19    41    1
    35    20    21   ar
    36    20    42    1
    37    21    22   ar
    38    21    24    1
    39    22    23   ar
    40    22    43    1
    41    23    44    1
    42    24    45    1
    43    26    46    1
    44    27    47    1
    45    28    48    1
    46    29    49    1
    47    30    50    1
    48     1    31    1
    49     1    27    1
    50     2    32    1
    51     2    28    1
    52     4    34    1
    53     4    30    1
