@<TRIPOS>MOLECULE
*****
 50 53 0 0 0
SMALL
GASTEIGER

@<TRIPOS>ATOM
     1 C         -0.092393   -2.139109   0.431837 C.3        1 UNL1     0.1889
     2 C         -0.341143   -0.918172   -0.49411 C.3        1 UNL1     0.1342
     3 C         -1.800997   -0.736159   -0.937013 C.3        1 UNL1     0.1174
     4 C         -2.528783   -2.066833   -1.143774 C.3        1 UNL1     0.1456
     5 C         -2.293737   -3.054216   0.013892 C.3        1 UNL1     0.2326
     6 O         -0.896412   -3.282552   0.181864 O.3        1 UNL1     -0.3076
     7 O         -2.955825   -2.6749   1.23417 O.3        1 UNL1     -0.4605
     8 C         -3.884053   -1.654735   1.1284 C.ar        1 UNL1     0.1310
     9 C         -4.10474   -0.87498   -0.012029 C.ar        1 UNL1     0.0226
     10 C         -5.082932   0.126445   -0.025876 C.ar        1 UNL1     0.1343
     11 C         -5.881205   0.356666   1.093767 C.ar        1 UNL1     0.1007
     12 C         -5.642455   -0.387872   2.251975 C.ar        1 UNL1     0.1389
     13 C         -4.657042   -1.39295   2.266501 C.ar        1 UNL1     0.0229
     14 C         -6.985038   1.344362   1.106465 C.2        1 UNL1     0.1740
     15 C         -7.879101   1.303418   2.310843 C.3        1 UNL1     0.0520
     16 C         -7.01581   1.076717   3.54425 C.3        1 UNL1     0.1322
     17 O         -6.295069   -0.171252   3.443376 O.3        1 UNL1     -0.4828
     18 C         -6.149209   2.281205   3.919663 C.ar        1 UNL1     -0.0067
     19 C         -5.022108   2.595549   3.132868 C.ar        1 UNL1     -0.0516
     20 C         -4.181582   3.66143   3.475469 C.ar        1 UNL1     -0.0198
     21 C         -4.452585   4.414267   4.604017 C.ar        1 UNL1     0.1169
     22 C         -5.573717   4.150156   5.38 C.ar        1 UNL1     -0.0198
     23 C         -6.424709   3.095908   5.027252 C.ar        1 UNL1     -0.0516
     24 O         -3.590518   5.420586   4.927377 O.3        1 UNL1     -0.5068
     25 O         -7.224121   2.103174   0.170768 O.2        1 UNL1     -0.2917
     26 O         -5.247348   0.852272   -1.169435 O.3        1 UNL1     -0.5058
     27 O         -0.068318   -1.807119   1.810963 O.3        1 UNL1     -0.3648
     28 O         0.450893   -1.080302   -1.685369 O.3        1 UNL1     -0.3841
     29 O         -2.494794   0.141846   -0.048259 O.3        1 UNL1     -0.3863
     30 O         -2.068533   -2.672786   -2.371243 O.3        1 UNL1     -0.3829
     31 H         0.92387   -2.489641   0.221085 H        1 UNL1     0.0937
     32 H         0.0   0.0   0.0 H        1 UNL1     0.0671
     33 H         -1.795118   -0.222814   -1.908693 H        1 UNL1     0.0649
     34 H         -3.604348   -1.891248   -1.256611 H        1 UNL1     0.0683
     35 H         -2.729331   -3.994157   -0.347562 H        1 UNL1     0.1085
     36 H         -3.555646   -1.042235   -0.932161 H        1 UNL1     0.0691
     37 H         -4.489983   -1.957841   3.181095 H        1 UNL1     0.0691
     38 H         -8.588606   0.481253   2.168808 H        1 UNL1     0.0385
     39 H         -8.44639   2.238626   2.368703 H        1 UNL1     0.0385
     40 H         -7.696791   0.932567   4.393959 H        1 UNL1     0.0789
     41 H         -4.782647   2.014074   2.247319 H        1 UNL1     0.0623
     42 H         -3.308852   3.8864   2.867404 H        1 UNL1     0.0654
     43 H         -5.80368   4.742854   6.257346 H        1 UNL1     0.0654
     44 H         -7.297324   2.924528   5.650162 H        1 UNL1     0.0623
     45 H         -2.986002   5.558501   4.180211 H        1 UNL1     0.2921
     46 H         -6.11909   1.278164   -1.159774 H        1 UNL1     0.2922
     47 H         0.131545   -0.867575   1.92573 H        1 UNL1     0.2126
     48 H         1.380886   -1.150024   -1.39557 H        1 UNL1     0.2101
     49 H         -2.617803   1.007663   -0.469002 H        1 UNL1     0.2100
     50 H         -1.145918   -2.97155   -2.232553 H        1 UNL1     0.2102
@<TRIPOS>BOND
     1     1     2    1
     2     1     6    1
     3     2     3    1
     4     3     4    1
     5     3    29    1
     6     3    33    1
     7     4     5    1
     8     5     6    1
     9     5     7    1
    10     5    35    1
    11     7     8    1
    12     8     9   ar
    13     8    13   ar
    14     9    10   ar
    15     9    36    1
    16    10    11   ar
    17    10    26    1
    18    11    12   ar
    19    11    14    1
    20    12    13   ar
    21    12    17    1
    22    13    37    1
    23    14    15    1
    24    14    25    2
    25    15    16    1
    26    15    38    1
    27    15    39    1
    28    16    17    1
    29    16    18    1
    30    16    40    1
    31    18    19   ar
    32    18    23   ar
    33    19    20   ar
    34    19    41    1
    35    20    21   ar
    36    20    42    1
    37    21    22   ar
    38    21    24    1
    39    22    23   ar
    40    22    43    1
    41    23    44    1
    42    24    45    1
    43    26    46    1
    44    27    47    1
    45    28    48    1
    46    29    49    1
    47    30    50    1
    48     1    31    1
    49     1    27    1
    50     2    32    1
    51     2    28    1
    52     4    34    1
    53     4    30    1
