@<TRIPOS>MOLECULE
*****
 50 53 0 0 0
SMALL
GASTEIGER

@<TRIPOS>ATOM
     1 C         -0.500664   -1.946569   -0.85499 C.3        1 UNL1     0.1889
     2 C         -0.641016   -0.85687   0.241731 C.3        1 UNL1     0.1342
     3 C         -0.321331   -1.335755   1.666139 C.3        1 UNL1     0.1174
     4 C         -0.741168   -2.786998   1.91261 C.3        1 UNL1     0.1456
     5 C         -0.310328   -3.727795   0.772592 C.3        1 UNL1     0.2326
     6 O         -0.846238   -3.267799   -0.465985 O.3        1 UNL1     -0.3076
     7 O         1.109669   -3.957153   0.724389 O.3        1 UNL1     -0.4605
     8 C         1.603954   -4.888971   1.619334 C.ar        1 UNL1     0.1310
     9 C         0.856838   -5.539373   2.607309 C.ar        1 UNL1     0.0226
     10 C         1.446506   -6.483008   3.456866 C.ar        1 UNL1     0.1343
     11 C         2.793539   -6.816923   3.323283 C.ar        1 UNL1     0.1007
     12 C         3.559459   -6.144233   2.367439 C.ar        1 UNL1     0.1389
     13 C         2.966927   -5.193532   1.515087 C.ar        1 UNL1     0.0229
     14 C         3.447546   -7.866986   4.138019 C.2        1 UNL1     0.1740
     15 C         4.834122   -8.250311   3.711382 C.3        1 UNL1     0.0520
     16 C         5.583194   -6.985511   3.314986 C.3        1 UNL1     0.1322
     17 O         4.916542   -6.315937   2.222139 O.3        1 UNL1     -0.4828
     18 C         5.929743   -6.07828   4.498016 C.ar        1 UNL1     -0.0067
     19 C         6.551916   -6.63151   5.636019 C.ar        1 UNL1     -0.0516
     20 C         6.839392   -5.839361   6.753973 C.ar        1 UNL1     -0.0198
     21 C         6.503768   -4.497288   6.749189 C.ar        1 UNL1     0.1169
     22 C         5.920737   -3.91632   5.630534 C.ar        1 UNL1     -0.0198
     23 C         5.649937   -4.704217   4.505394 C.ar        1 UNL1     -0.0516
     24 O         6.76472   -3.765701   7.870388 O.3        1 UNL1     -0.5068
     25 O         2.885722   -8.458087   5.056409 O.2        1 UNL1     -0.2917
     26 O         0.662887   -7.080691   4.400424 O.3        1 UNL1     -0.5058
     27 O         0.744983   -1.909117   -1.533038 O.3        1 UNL1     -0.3648
     28 O         -2.000931   -0.38429   0.243769 O.3        1 UNL1     -0.3841
     29 O         1.050298   -1.094429   1.986339 O.3        1 UNL1     -0.3863
     30 O         -2.17779   -2.848248   2.046978 O.3        1 UNL1     -0.3829
     31 H         -1.236868   -1.707007   -1.630033 H        1 UNL1     0.0937
     32 H         0.0   0.0   0.0 H        1 UNL1     0.0671
     33 H         -0.89792   -0.714885   2.365985 H        1 UNL1     0.0649
     34 H         -0.315396   -3.144283   2.856785 H        1 UNL1     0.0683
     35 H         -0.813871   -4.674256   1.006121 H        1 UNL1     0.1085
     36 H         -0.207026   -5.364914   2.725112 H        1 UNL1     0.0691
     37 H         3.585238   -4.682968   0.779894 H        1 UNL1     0.0691
     38 H         4.741698   -8.936861   2.863069 H        1 UNL1     0.0385
     39 H         5.327258   -8.783876   4.531079 H        1 UNL1     0.0385
     40 H         6.549159   -7.299093   2.896538 H        1 UNL1     0.0789
     41 H         6.817027   -7.684287   5.66808 H        1 UNL1     0.0623
     42 H         7.308577   -6.28026   7.630035 H        1 UNL1     0.0654
     43 H         5.667499   -2.863051   5.610399 H        1 UNL1     0.0654
     44 H         5.203488   -4.215057   3.645016 H        1 UNL1     0.0623
     45 H         7.700948   -3.508723   7.857905 H        1 UNL1     0.2921
     46 H         -0.238095   -6.724866   4.345366 H        1 UNL1     0.2922
     47 H         1.36157   -1.326005   -1.068647 H        1 UNL1     0.2126
     48 H         -1.993807   0.490142   -0.19103 H        1 UNL1     0.2101
     49 H         1.260271   -1.481258   2.851249 H        1 UNL1     0.2100
     50 H         -2.392001   -2.836093   3.002844 H        1 UNL1     0.2102
@<TRIPOS>BOND
     1     1     2    1
     2     1     6    1
     3     2     3    1
     4     3     4    1
     5     3    29    1
     6     3    33    1
     7     4     5    1
     8     5     6    1
     9     5     7    1
    10     5    35    1
    11     7     8    1
    12     8     9   ar
    13     8    13   ar
    14     9    10   ar
    15     9    36    1
    16    10    11   ar
    17    10    26    1
    18    11    12   ar
    19    11    14    1
    20    12    13   ar
    21    12    17    1
    22    13    37    1
    23    14    15    1
    24    14    25    2
    25    15    16    1
    26    15    38    1
    27    15    39    1
    28    16    17    1
    29    16    18    1
    30    16    40    1
    31    18    19   ar
    32    18    23   ar
    33    19    20   ar
    34    19    41    1
    35    20    21   ar
    36    20    42    1
    37    21    22   ar
    38    21    24    1
    39    22    23   ar
    40    22    43    1
    41    23    44    1
    42    24    45    1
    43    26    46    1
    44    27    47    1
    45    28    48    1
    46    29    49    1
    47    30    50    1
    48     1    31    1
    49     1    27    1
    50     2    32    1
    51     2    28    1
    52     4    34    1
    53     4    30    1
