@<TRIPOS>MOLECULE
*****
 50 53 0 0 0
SMALL
GASTEIGER

@<TRIPOS>ATOM
     1 C         -0.319456   -1.376333   1.665671 C.3        1 UNL1     0.1889
     2 C         -0.461421   -0.980459   0.171325 C.3        1 UNL1     0.1342
     3 C         -1.90634   -0.952267   -0.350095 C.3        1 UNL1     0.1174
     4 C         -2.788038   -2.029706   0.286185 C.3        1 UNL1     0.1456
     5 C         -2.624562   -2.098865   1.815517 C.3        1 UNL1     0.2326
     6 O         -1.257106   -2.327246   2.148345 O.3        1 UNL1     -0.3076
     7 O         -3.193829   -0.970756   2.504447 O.3        1 UNL1     -0.4605
     8 C         -3.704266   -1.224645   3.764813 C.ar        1 UNL1     0.1310
     9 C         -4.517108   -2.31095   4.106178 C.ar        1 UNL1     0.0226
     10 C         -4.971127   -2.491025   5.418177 C.ar        1 UNL1     0.1343
     11 C         -4.60336   -1.601307   6.426637 C.ar        1 UNL1     0.1007
     12 C         -3.82581   -0.49015   6.089698 C.ar        1 UNL1     0.1389
     13 C         -3.371607   -0.307865   4.769886 C.ar        1 UNL1     0.0229
     14 C         -4.985185   -1.789655   7.8454 C.2        1 UNL1     0.1740
     15 C         -4.320878   -0.866894   8.824562 C.3        1 UNL1     0.0520
     16 C         -4.255854   0.523741   8.208232 C.3        1 UNL1     0.1322
     17 O         -3.495606   0.505207   6.97992 O.3        1 UNL1     -0.4828
     18 C         -5.617493   1.214534   8.101135 C.ar        1 UNL1     -0.0067
     19 C         -5.750206   2.362044   7.292543 C.ar        1 UNL1     -0.0516
     20 C         -6.969292   3.045375   7.209762 C.ar        1 UNL1     -0.0198
     21 C         -8.058645   2.596536   7.934801 C.ar        1 UNL1     0.1169
     22 C         -7.968242   1.450216   8.713657 C.ar        1 UNL1     -0.0198
     23 C         -6.754347   0.756082   8.782149 C.ar        1 UNL1     -0.0516
     24 O         -9.218943   3.309517   7.858856 O.3        1 UNL1     -0.5068
     25 O         -5.731211   -2.685645   8.231576 O.2        1 UNL1     -0.2917
     26 O         -5.761853   -3.570428   5.685059 O.3        1 UNL1     -0.5058
     27 O         -0.207041   -0.262627   2.53734 O.3        1 UNL1     -0.3648
     28 O         0.26266   -1.936909   -0.624675 O.3        1 UNL1     -0.3841
     29 O         -2.462486   0.358805   -0.232091 O.3        1 UNL1     -0.3863
     30 O         -2.445232   -3.315145   -0.275794 O.3        1 UNL1     -0.3829
     31 H         0.641835   -1.89268   1.762536 H        1 UNL1     0.0937
     32 H         0.0   0.0   0.0 H        1 UNL1     0.0671
     33 H         -1.87777   -1.161088   -1.428658 H        1 UNL1     0.0649
     34 H         -3.840026   -1.843791   0.04296 H        1 UNL1     0.0683
     35 H         -3.177357   -3.002942   2.100019 H        1 UNL1     0.1085
     36 H         -4.791864   -3.067972   3.379854 H        1 UNL1     0.0691
     37 H         -2.76844   0.566006   4.533175 H        1 UNL1     0.0691
     38 H         -3.317348   -1.259185   9.020936 H        1 UNL1     0.0385
     39 H         -4.882217   -0.877114   9.765079 H        1 UNL1     0.0385
     40 H         -3.664086   1.151707   8.88793 H        1 UNL1     0.0789
     41 H         -4.907511   2.739741   6.720827 H        1 UNL1     0.0623
     42 H         -7.055733   3.935878   6.59207 H        1 UNL1     0.0654
     43 H         -8.819246   1.08136   9.273699 H        1 UNL1     0.0654
     44 H         -6.722501   -0.141588   9.392083 H        1 UNL1     0.0623
     45 H         -9.067716   4.184235   8.252197 H        1 UNL1     0.2921
     46 H         -5.368945   -4.089269   6.404669 H        1 UNL1     0.2922
     47 H         0.52109   0.309491   2.2574 H        1 UNL1     0.2126
     48 H         1.207567   -1.82601   -0.404256 H        1 UNL1     0.2101
     49 H         -2.034435   0.957056   -0.865068 H        1 UNL1     0.2100
     50 H         -2.711793   -3.312844   -1.218478 H        1 UNL1     0.2102
@<TRIPOS>BOND
     1     1     2    1
     2     1     6    1
     3     2     3    1
     4     3     4    1
     5     3    29    1
     6     3    33    1
     7     4     5    1
     8     5     6    1
     9     5     7    1
    10     5    35    1
    11     7     8    1
    12     8     9   ar
    13     8    13   ar
    14     9    10   ar
    15     9    36    1
    16    10    11   ar
    17    10    26    1
    18    11    12   ar
    19    11    14    1
    20    12    13   ar
    21    12    17    1
    22    13    37    1
    23    14    15    1
    24    14    25    2
    25    15    16    1
    26    15    38    1
    27    15    39    1
    28    16    17    1
    29    16    18    1
    30    16    40    1
    31    18    19   ar
    32    18    23   ar
    33    19    20   ar
    34    19    41    1
    35    20    21   ar
    36    20    42    1
    37    21    22   ar
    38    21    24    1
    39    22    23   ar
    40    22    43    1
    41    23    44    1
    42    24    45    1
    43    26    46    1
    44    27    47    1
    45    28    48    1
    46    29    49    1
    47    30    50    1
    48     1    31    1
    49     1    27    1
    50     2    32    1
    51     2    28    1
    52     4    34    1
    53     4    30    1
