@<TRIPOS>MOLECULE
*****
 50 53 0 0 0
SMALL
GASTEIGER

@<TRIPOS>ATOM
     1 C         1.496595   1.585452   0.131721 C.3        1 UNL1     0.1889
     2 C         0.998763   0.21455   -0.400004 C.3        1 UNL1     0.1342
     3 C         1.927701   -0.969231   -0.089839 C.3        1 UNL1     0.1174
     4 C         3.4089   -0.583846   -0.115286 C.3        1 UNL1     0.1456
     5 C         3.693688   0.71693   0.657527 C.3        1 UNL1     0.2326
     6 O         2.903292   1.77934   0.128918 O.3        1 UNL1     -0.3076
     7 O         3.569353   0.574935   2.084306 O.3        1 UNL1     -0.4605
     8 C         3.683779   1.73971   2.82169 C.ar        1 UNL1     0.1310
     9 C         4.736795   2.656311   2.73059 C.ar        1 UNL1     0.0226
     10 C         4.75363   3.8191   3.51004 C.ar        1 UNL1     0.1343
     11 C         3.704994   4.105565   4.383047 C.ar        1 UNL1     0.1007
     12 C         2.668138   3.177732   4.512817 C.ar        1 UNL1     0.1389
     13 C         2.652754   2.00734   3.730911 C.ar        1 UNL1     0.0229
     14 C         3.630448   5.35944   5.168154 C.2        1 UNL1     0.1740
     15 C         2.332413   5.603388   5.880293 C.3        1 UNL1     0.0520
     16 C         1.847324   4.283328   6.463463 C.3        1 UNL1     0.1322
     17 O         1.641552   3.306279   5.419384 O.3        1 UNL1     -0.4828
     18 C         2.686897   3.784883   7.642189 C.ar        1 UNL1     -0.0067
     19 C         3.39103   2.568808   7.525689 C.ar        1 UNL1     -0.0516
     20 C         4.129879   2.060731   8.600828 C.ar        1 UNL1     -0.0198
     21 C         4.166437   2.754005   9.797433 C.ar        1 UNL1     0.1169
     22 C         3.510753   3.970885   9.932039 C.ar        1 UNL1     -0.0198
     23 C         2.786945   4.488353   8.85112 C.ar        1 UNL1     -0.0516
     24 O         4.865338   2.209433   10.834438 O.3        1 UNL1     -0.5068
     25 O         4.526153   6.199584   5.187051 O.2        1 UNL1     -0.2917
     26 O         5.810226   4.671647   3.374569 O.3        1 UNL1     -0.5058
     27 O         0.919711   1.953053   1.374645 O.3        1 UNL1     -0.3648
     28 O         0.875139   0.298334   -1.831926 O.3        1 UNL1     -0.3841
     29 O         1.543335   -1.60973   1.12842 O.3        1 UNL1     -0.3863
     30 O         3.829963   -0.411035   -1.485882 O.3        1 UNL1     -0.3829
     31 H         1.132163   2.344039   -0.569572 H        1 UNL1     0.0937
     32 H         0.0   -0.0   0.0 H        1 UNL1     0.0671
     33 H         1.782245   -1.724312   -0.87496 H        1 UNL1     0.0649
     34 H         4.013566   -1.394582   0.306005 H        1 UNL1     0.0683
     35 H         4.738927   0.945575   0.414475 H        1 UNL1     0.1085
     36 H         5.553506   2.518799   2.030451 H        1 UNL1     0.0691
     37 H         1.83471   1.30041   3.851516 H        1 UNL1     0.0691
     38 H         1.620713   5.996186   5.146318 H        1 UNL1     0.0385
     39 H         2.484069   6.366018   6.651769 H        1 UNL1     0.0385
     40 H         0.844538   4.460411   6.875267 H        1 UNL1     0.0789
     41 H         3.370706   2.001144   6.599949 H        1 UNL1     0.0623
     42 H         4.658849   1.116   8.502418 H        1 UNL1     0.0654
     43 H         3.545118   4.529476   10.859782 H        1 UNL1     0.0654
     44 H         2.295589   5.446813   8.988118 H        1 UNL1     0.0623
     45 H         4.405103   2.425678   11.661565 H        1 UNL1     0.2921
     46 H         6.562544   4.338758   3.888977 H        1 UNL1     0.2922
     47 H         -0.043721   1.876468   1.332304 H        1 UNL1     0.2126
     48 H         0.906272   -0.617562   -2.169412 H        1 UNL1     0.2101
     49 H         1.584971   -2.573439   1.021995 H        1 UNL1     0.2100
     50 H         3.624874   -1.237202   -1.970751 H        1 UNL1     0.2102
@<TRIPOS>BOND
     1     1     2    1
     2     1     6    1
     3     2     3    1
     4     3     4    1
     5     3    29    1
     6     3    33    1
     7     4     5    1
     8     5     6    1
     9     5     7    1
    10     5    35    1
    11     7     8    1
    12     8     9   ar
    13     8    13   ar
    14     9    10   ar
    15     9    36    1
    16    10    11   ar
    17    10    26    1
    18    11    12   ar
    19    11    14    1
    20    12    13   ar
    21    12    17    1
    22    13    37    1
    23    14    15    1
    24    14    25    2
    25    15    16    1
    26    15    38    1
    27    15    39    1
    28    16    17    1
    29    16    18    1
    30    16    40    1
    31    18    19   ar
    32    18    23   ar
    33    19    20   ar
    34    19    41    1
    35    20    21   ar
    36    20    42    1
    37    21    22   ar
    38    21    24    1
    39    22    23   ar
    40    22    43    1
    41    23    44    1
    42    24    45    1
    43    26    46    1
    44    27    47    1
    45    28    48    1
    46    29    49    1
    47    30    50    1
    48     1    31    1
    49     1    27    1
    50     2    32    1
    51     2    28    1
    52     4    34    1
    53     4    30    1
