@<TRIPOS>MOLECULE
*****
 50 53 0 0 0
SMALL
GASTEIGER

@<TRIPOS>ATOM
     1 C         -0.20637   -1.18193   1.825173 C.3        1 UNL1     0.1889
     2 C         -0.518318   -0.909176   0.329101 C.3        1 UNL1     0.1342
     3 C         -2.013295   -0.781125   -0.001223 C.3        1 UNL1     0.1174
     4 C         -2.890355   -1.702014   0.850743 C.3        1 UNL1     0.1456
     5 C         -2.523379   -1.650116   2.345066 C.3        1 UNL1     0.2326
     6 O         -1.148682   -1.985537   2.51991 O.3        1 UNL1     -0.3076
     7 O         -2.889457   -0.412828   2.98258 O.3        1 UNL1     -0.4605
     8 C         -3.229928   -0.497852   4.32063 C.ar        1 UNL1     0.1310
     9 C         -4.080614   -1.456829   4.880982 C.ar        1 UNL1     0.0226
     10 C         -4.35109   -1.470161   6.254506 C.ar        1 UNL1     0.1343
     11 C         -3.758027   -0.538455   7.105412 C.ar        1 UNL1     0.1007
     12 C         -2.939142   0.449282   6.551711 C.ar        1 UNL1     0.1389
     13 C         -2.669431   0.464088   5.170238 C.ar        1 UNL1     0.0229
     14 C         -3.942446   -0.558164   8.575023 C.2        1 UNL1     0.1740
     15 C         -3.058624   0.372116   9.352832 C.3        1 UNL1     0.0520
     16 C         -2.956695   1.687575   8.593138 C.3        1 UNL1     0.1322
     17 O         -2.390711   1.479085   7.280406 O.3        1 UNL1     -0.4828
     18 C         -4.249418   2.507013   8.603752 C.ar        1 UNL1     -0.0067
     19 C         -4.746763   3.031662   7.393131 C.ar        1 UNL1     -0.0516
     20 C         -5.900195   3.824881   7.3741 C.ar        1 UNL1     -0.0198
     21 C         -6.559701   4.106153   8.557217 C.ar        1 UNL1     0.1169
     22 C         -6.113358   3.576331   9.760921 C.ar        1 UNL1     -0.0198
     23 C         -4.970476   2.767881   9.777813 C.ar        1 UNL1     -0.0516
     24 O         -7.657912   4.91334   8.504459 O.3        1 UNL1     -0.5068
     25 O         -4.703123   -1.331786   9.150666 O.2        1 UNL1     -0.2917
     26 O         -5.190333   -2.431281   6.737729 O.3        1 UNL1     -0.5058
     27 O         0.12399   -0.011812   2.556251 O.3        1 UNL1     -0.3648
     28 O         0.000849   -2.001715   -0.451623 O.3        1 UNL1     -0.3841
     29 O         -2.4293   0.58495   0.052745 O.3        1 UNL1     -0.3863
     30 O         -2.744016   -3.060792   0.383844 O.3        1 UNL1     -0.3829
     31 H         0.709478   -1.782527   1.849314 H        1 UNL1     0.0937
     32 H         0.0   0.0   0.0 H        1 UNL1     0.0671
     33 H         -2.153035   -1.087565   -1.047305 H        1 UNL1     0.0649
     34 H         -3.945231   -1.432699   0.727833 H        1 UNL1     0.0683
     35 H         -3.109378   -2.464188   2.789781 H        1 UNL1     0.1085
     36 H         -4.52824   -2.24192   4.281495 H        1 UNL1     0.0691
     37 H         -2.029464   1.244298   4.763781 H        1 UNL1     0.0691
     38 H         -2.077773   -0.10567   9.448637 H        1 UNL1     0.0385
     39 H         -3.473792   0.50537   10.35765 H        1 UNL1     0.0385
     40 H         -2.215704   2.306984   9.116381 H        1 UNL1     0.0789
     41 H         -4.242042   2.832921   6.452169 H        1 UNL1     0.0623
     42 H         -6.267001   4.23344   6.435727 H        1 UNL1     0.0654
     43 H         -6.630827   3.777883   10.69125 H        1 UNL1     0.0654
     44 H         -4.656087   2.362085   10.734544 H        1 UNL1     0.0623
     45 H         -7.38778   5.775935   8.149951 H        1 UNL1     0.2921
     46 H         -4.737166   -2.938274   7.429835 H        1 UNL1     0.2922
     47 H         0.867431   0.44513   2.138688 H        1 UNL1     0.2126
     48 H         0.966509   -2.015088   -0.306522 H        1 UNL1     0.2101
     49 H         -3.015988   0.721449   0.813638 H        1 UNL1     0.2100
     50 H         -3.111833   -3.109315   -0.522836 H        1 UNL1     0.2102
@<TRIPOS>BOND
     1     1     2    1
     2     1     6    1
     3     2     3    1
     4     3     4    1
     5     3    29    1
     6     3    33    1
     7     4     5    1
     8     5     6    1
     9     5     7    1
    10     5    35    1
    11     7     8    1
    12     8     9   ar
    13     8    13   ar
    14     9    10   ar
    15     9    36    1
    16    10    11   ar
    17    10    26    1
    18    11    12   ar
    19    11    14    1
    20    12    13   ar
    21    12    17    1
    22    13    37    1
    23    14    15    1
    24    14    25    2
    25    15    16    1
    26    15    38    1
    27    15    39    1
    28    16    17    1
    29    16    18    1
    30    16    40    1
    31    18    19   ar
    32    18    23   ar
    33    19    20   ar
    34    19    41    1
    35    20    21   ar
    36    20    42    1
    37    21    22   ar
    38    21    24    1
    39    22    23   ar
    40    22    43    1
    41    23    44    1
    42    24    45    1
    43    26    46    1
    44    27    47    1
    45    28    48    1
    46    29    49    1
    47    30    50    1
    48     1    31    1
    49     1    27    1
    50     2    32    1
    51     2    28    1
    52     4    34    1
    53     4    30    1
