@<TRIPOS>MOLECULE
*****
 50 53 0 0 0
SMALL
GASTEIGER

@<TRIPOS>ATOM
     1 C         -1.523972   0.235515   1.546883 C.3        1 UNL1     0.1889
     2 C         -0.596165   0.80808   0.441765 C.3        1 UNL1     0.1342
     3 C         0.346271   1.926723   0.911783 C.3        1 UNL1     0.1174
     4 C         -0.283557   2.823371   1.98064 C.3        1 UNL1     0.1456
     5 C         -0.979606   2.016979   3.09222 C.3        1 UNL1     0.2326
     6 O         -1.970441   1.162743   2.525305 O.3        1 UNL1     -0.3076
     7 O         -0.06221   1.323217   3.957322 O.3        1 UNL1     -0.4605
     8 C         0.533332   2.08585   4.945881 C.ar        1 UNL1     0.1310
     9 C         0.384596   3.468044   5.103101 C.ar        1 UNL1     0.0226
     10 C         1.017198   4.149636   6.149596 C.ar        1 UNL1     0.1343
     11 C         1.795464   3.461176   7.0792 C.ar        1 UNL1     0.1007
     12 C         1.984706   2.08716   6.90875 C.ar        1 UNL1     0.1389
     13 C         1.350664   1.402477   5.854885 C.ar        1 UNL1     0.0229
     14 C         2.41806   4.117738   8.251997 C.2        1 UNL1     0.1740
     15 C         3.029523   3.194316   9.264397 C.3        1 UNL1     0.0520
     16 C         3.743406   2.071999   8.523631 C.3        1 UNL1     0.1322
     17 O         2.81649   1.329987   7.70064 O.3        1 UNL1     -0.4828
     18 C         5.014387   2.522525   7.799505 C.ar        1 UNL1     -0.0067
     19 C         5.975187   3.284154   8.495923 C.ar        1 UNL1     -0.0516
     20 C         7.125975   3.752349   7.8506 C.ar        1 UNL1     -0.0198
     21 C         7.323531   3.47254   6.510262 C.ar        1 UNL1     0.1169
     22 C         6.411868   2.696694   5.806151 C.ar        1 UNL1     -0.0198
     23 C         5.270098   2.212806   6.455972 C.ar        1 UNL1     -0.0516
     24 O         8.437252   3.977247   5.905864 O.3        1 UNL1     -0.5068
     25 O         2.379769   5.329626   8.447821 O.2        1 UNL1     -0.2917
     26 O         0.832419   5.497988   6.246482 O.3        1 UNL1     -0.5058
     27 O         -1.028921   -0.954297   2.140227 O.3        1 UNL1     -0.3648
     28 O         -1.418373   1.35304   -0.606899 O.3        1 UNL1     -0.3841
     29 O         1.608922   1.390902   1.31271 O.3        1 UNL1     -0.3863
     30 O         -1.256029   3.690921   1.35827 O.3        1 UNL1     -0.3829
     31 H         -2.448513   -0.076082   1.048676 H        1 UNL1     0.0937
     32 H         0.0   0.0   0.0 H        1 UNL1     0.0671
     33 H         0.563129   2.568259   0.046263 H        1 UNL1     0.0649
     34 H         0.481996   3.467883   2.42666 H        1 UNL1     0.0683
     35 H         -1.511314   2.777659   3.677482 H        1 UNL1     0.1085
     36 H         -0.251958   4.051354   4.446847 H        1 UNL1     0.0691
     37 H         1.51499   0.332872   5.743375 H        1 UNL1     0.0691
     38 H         2.218657   2.802796   9.887884 H        1 UNL1     0.0385
     39 H         3.709475   3.764913   9.906162 H        1 UNL1     0.0385
     40 H         4.080007   1.348667   9.278621 H        1 UNL1     0.0789
     41 H         5.838828   3.525025   9.546179 H        1 UNL1     0.0623
     42 H         7.853638   4.348737   8.395431 H        1 UNL1     0.0654
     43 H         6.564223   2.458937   4.760125 H        1 UNL1     0.0654
     44 H         4.584285   1.600905   5.877973 H        1 UNL1     0.0623
     45 H         8.866743   3.262575   5.408372 H        1 UNL1     0.2921
     46 H         0.267305   5.800257   5.517996 H        1 UNL1     0.2922
     47 H         -0.176804   -0.786474   2.566364 H        1 UNL1     0.2126
     48 H         -1.003101   1.09291   -1.451656 H        1 UNL1     0.2101
     49 H         1.943836   1.876553   2.083274 H        1 UNL1     0.2100
     50 H         -1.486662   4.394499   1.999753 H        1 UNL1     0.2102
@<TRIPOS>BOND
     1     1     2    1
     2     1     6    1
     3     2     3    1
     4     3     4    1
     5     3    29    1
     6     3    33    1
     7     4     5    1
     8     5     6    1
     9     5     7    1
    10     5    35    1
    11     7     8    1
    12     8     9   ar
    13     8    13   ar
    14     9    10   ar
    15     9    36    1
    16    10    11   ar
    17    10    26    1
    18    11    12   ar
    19    11    14    1
    20    12    13   ar
    21    12    17    1
    22    13    37    1
    23    14    15    1
    24    14    25    2
    25    15    16    1
    26    15    38    1
    27    15    39    1
    28    16    17    1
    29    16    18    1
    30    16    40    1
    31    18    19   ar
    32    18    23   ar
    33    19    20   ar
    34    19    41    1
    35    20    21   ar
    36    20    42    1
    37    21    22   ar
    38    21    24    1
    39    22    23   ar
    40    22    43    1
    41    23    44    1
    42    24    45    1
    43    26    46    1
    44    27    47    1
    45    28    48    1
    46    29    49    1
    47    30    50    1
    48     1    31    1
    49     1    27    1
    50     2    32    1
    51     2    28    1
    52     4    34    1
    53     4    30    1
