@<TRIPOS>MOLECULE
*****
 50 53 0 0 0
SMALL
GASTEIGER

@<TRIPOS>ATOM
     1 C         1.830862   -0.483354   1.088631 C.3        1 UNL1     0.1889
     2 C         0.297382   -0.250002   1.025975 C.3        1 UNL1     0.1342
     3 C         -0.225325   0.836611   1.978086 C.3        1 UNL1     0.1174
     4 C         0.545096   0.888272   3.299789 C.3        1 UNL1     0.1456
     5 C         2.070576   0.847859   3.095725 C.3        1 UNL1     0.2326
     6 O         2.432373   -0.321589   2.364723 O.3        1 UNL1     -0.3076
     7 O         2.605276   2.057705   2.528548 O.3        1 UNL1     -0.4605
     8 C         3.882826   2.403003   2.931243 C.ar        1 UNL1     0.1310
     9 C         4.267862   2.693087   4.244598 C.ar        1 UNL1     0.0226
     10 C         5.594009   3.016668   4.555292 C.ar        1 UNL1     0.1343
     11 C         6.573086   3.034757   3.56286 C.ar        1 UNL1     0.1007
     12 C         6.19275   2.787004   2.241215 C.ar        1 UNL1     0.1389
     13 C         4.85874   2.46426   1.928668 C.ar        1 UNL1     0.0229
     14 C         8.004412   3.287812   3.848209 C.2        1 UNL1     0.1740
     15 C         8.946416   3.049552   2.704789 C.3        1 UNL1     0.0520
     16 C         8.297447   3.569619   1.429513 C.3        1 UNL1     0.1322
     17 O         7.052158   2.884223   1.171527 O.3        1 UNL1     -0.4828
     18 C         8.207139   5.096072   1.362356 C.ar        1 UNL1     -0.0067
     19 C         9.391786   5.860794   1.367307 C.ar        1 UNL1     -0.0516
     20 C         9.343664   7.259896   1.354653 C.ar        1 UNL1     -0.0198
     21 C         8.119801   7.904786   1.344469 C.ar        1 UNL1     0.1169
     22 C         6.936348   7.179004   1.305488 C.ar        1 UNL1     -0.0198
     23 C         6.984468   5.779824   1.299493 C.ar        1 UNL1     -0.0516
     24 O         8.111845   9.268475   1.37073 O.3        1 UNL1     -0.5068
     25 O         8.428347   3.594681   4.959332 O.2        1 UNL1     -0.2917
     26 O         5.90392   3.290353   5.855537 O.3        1 UNL1     -0.5058
     27 O         2.549596   0.207809   0.079422 O.3        1 UNL1     -0.3648
     28 O         -0.36569   -1.479604   1.373998 O.3        1 UNL1     -0.3841
     29 O         -0.280552   2.103783   1.319786 O.3        1 UNL1     -0.3863
     30 O         0.156502   -0.235897   4.118892 O.3        1 UNL1     -0.3829
     31 H         1.995789   -1.541974   0.860155 H        1 UNL1     0.0937
     32 H         0.0   0.0   0.0 H        1 UNL1     0.0671
     33 H         -1.267284   0.591459   2.226965 H        1 UNL1     0.0649
     34 H         0.278139   1.795476   3.853066 H        1 UNL1     0.0683
     35 H         2.470045   0.726083   4.110355 H        1 UNL1     0.1085
     36 H         3.565561   2.641283   5.069347 H        1 UNL1     0.0691
     37 H         4.588083   2.276665   0.891823 H        1 UNL1     0.0691
     38 H         9.127714   1.97113   2.644256 H        1 UNL1     0.0385
     39 H         9.899991   3.54538   2.916041 H        1 UNL1     0.0385
     40 H         8.948534   3.279985   0.593619 H        1 UNL1     0.0789
     41 H         10.364768   5.378442   1.384464 H        1 UNL1     0.0623
     42 H         10.263982   7.838489   1.37067 H        1 UNL1     0.0654
     43 H         5.972776   7.673872   1.282143 H        1 UNL1     0.0654
     44 H         6.040651   5.244723   1.258009 H        1 UNL1     0.0623
     45 H         8.971502   9.573843   1.703082 H        1 UNL1     0.2921
     46 H         6.7264   2.834671   6.094895 H        1 UNL1     0.2922
     47 H         2.784732   1.095372   0.384059 H        1 UNL1     0.2126
     48 H         -1.10935   -1.240199   1.959991 H        1 UNL1     0.2101
     49 H         0.550598   2.265916   0.845764 H        1 UNL1     0.2100
     50 H         0.866909   -0.90828   4.064712 H        1 UNL1     0.2102
@<TRIPOS>BOND
     1     1     2    1
     2     1     6    1
     3     2     3    1
     4     3     4    1
     5     3    29    1
     6     3    33    1
     7     4     5    1
     8     5     6    1
     9     5     7    1
    10     5    35    1
    11     7     8    1
    12     8     9   ar
    13     8    13   ar
    14     9    10   ar
    15     9    36    1
    16    10    11   ar
    17    10    26    1
    18    11    12   ar
    19    11    14    1
    20    12    13   ar
    21    12    17    1
    22    13    37    1
    23    14    15    1
    24    14    25    2
    25    15    16    1
    26    15    38    1
    27    15    39    1
    28    16    17    1
    29    16    18    1
    30    16    40    1
    31    18    19   ar
    32    18    23   ar
    33    19    20   ar
    34    19    41    1
    35    20    21   ar
    36    20    42    1
    37    21    22   ar
    38    21    24    1
    39    22    23   ar
    40    22    43    1
    41    23    44    1
    42    24    45    1
    43    26    46    1
    44    27    47    1
    45    28    48    1
    46    29    49    1
    47    30    50    1
    48     1    31    1
    49     1    27    1
    50     2    32    1
    51     2    28    1
    52     4    34    1
    53     4    30    1
