@<TRIPOS>MOLECULE
*****
 50 53 0 0 0
SMALL
GASTEIGER

@<TRIPOS>ATOM
     1 C         -1.941909   0.555517   0.831382 C.3        1 UNL1     0.1889
     2 C         -0.421598   0.276022   0.974489 C.3        1 UNL1     0.1342
     3 C         -0.062972   -0.809229   2.001173 C.3        1 UNL1     0.1174
     4 C         -1.00162   -0.815733   3.210312 C.3        1 UNL1     0.1456
     5 C         -2.485028   -0.733825   2.806385 C.3        1 UNL1     0.2326
     6 O         -2.710666   0.433219   2.019006 O.3        1 UNL1     -0.3076
     7 O         -2.978364   -1.936822   2.189346 O.3        1 UNL1     -0.4605
     8 C         -2.742761   -3.112492   2.879143 C.ar        1 UNL1     0.1310
     9 C         -1.634292   -3.947556   2.702326 C.ar        1 UNL1     0.0226
     10 C         -1.476406   -5.111714   3.463713 C.ar        1 UNL1     0.1343
     11 C         -2.412064   -5.456876   4.438007 C.ar        1 UNL1     0.1007
     12 C         -3.543997   -4.652659   4.595316 C.ar        1 UNL1     0.1389
     13 C         -3.703853   -3.483567   3.827787 C.ar        1 UNL1     0.0229
     14 C         -2.252316   -6.629974   5.328218 C.2        1 UNL1     0.1740
     15 C         -3.232594   -6.724174   6.460353 C.3        1 UNL1     0.0520
     16 C         -4.604725   -6.312181   5.945109 C.3        1 UNL1     0.1322
     17 O         -4.579852   -4.955909   5.448141 O.3        1 UNL1     -0.4828
     18 C         -5.233618   -7.327222   4.987555 C.ar        1 UNL1     -0.0067
     19 C         -6.575692   -7.162679   4.587584 C.ar        1 UNL1     -0.0516
     20 C         -7.195687   -8.098232   3.75074 C.ar        1 UNL1     -0.0198
     21 C         -6.488217   -9.203936   3.314011 C.ar        1 UNL1     0.1169
     22 C         -5.155182   -9.376073   3.663619 C.ar        1 UNL1     -0.0198
     23 C         -4.529438   -8.431046   4.485461 C.ar        1 UNL1     -0.0516
     24 O         -7.136483   -10.11338   2.531027 O.3        1 UNL1     -0.5068
     25 O         -1.338129   -7.442761   5.218113 O.2        1 UNL1     -0.2917
     26 O         -0.373428   -5.883521   3.241587 O.3        1 UNL1     -0.5058
     27 O         -2.543192   -0.131168   -0.254763 O.3        1 UNL1     -0.3648
     28 O         0.22835   1.491264   1.390976 O.3        1 UNL1     -0.3841
     29 O         0.038379   -2.088458   1.372339 O.3        1 UNL1     -0.3863
     30 O         -0.688848   0.310217   4.058899 O.3        1 UNL1     -0.3829
     31 H         -2.041998   1.614513   0.56949 H        1 UNL1     0.0937
     32 H         0.0   -0.0   0.0 H        1 UNL1     0.0671
     33 H         0.944444   -0.590721   2.382075 H        1 UNL1     0.0649
     34 H         -0.83835   -1.720902   3.805638 H        1 UNL1     0.0683
     35 H         -3.01032   -0.583137   3.757826 H        1 UNL1     0.1085
     36 H         -0.843924   -3.705112   2.000428 H        1 UNL1     0.0691
     37 H         -4.594598   -2.875096   3.968605 H        1 UNL1     0.0691
     38 H         -2.889444   -6.050172   7.252499 H        1 UNL1     0.0385
     39 H         -3.228141   -7.745976   6.854915 H        1 UNL1     0.0385
     40 H         -5.278158   -6.274603   6.812056 H        1 UNL1     0.0789
     41 H         -7.155301   -6.308053   4.924213 H        1 UNL1     0.0623
     42 H         -8.234681   -7.96642   3.45897 H        1 UNL1     0.0654
     43 H         -4.587382   -10.230457   3.314992 H        1 UNL1     0.0654
     44 H         -3.483881   -8.591661   4.730119 H        1 UNL1     0.0623
     45 H         -8.092491   -10.002051   2.658979 H        1 UNL1     0.2921
     46 H         0.008007   -6.154919   4.091447 H        1 UNL1     0.2922
     47 H         -2.04804   0.032352   -1.069591 H        1 UNL1     0.2126
     48 H         0.228352   2.087649   0.617635 H        1 UNL1     0.2101
     49 H         0.19941   -1.977114   0.421831 H        1 UNL1     0.2100
     50 H         0.199383   0.160059   4.44388 H        1 UNL1     0.2102
@<TRIPOS>BOND
     1     1     2    1
     2     1     6    1
     3     2     3    1
     4     3     4    1
     5     3    29    1
     6     3    33    1
     7     4     5    1
     8     5     6    1
     9     5     7    1
    10     5    35    1
    11     7     8    1
    12     8     9   ar
    13     8    13   ar
    14     9    10   ar
    15     9    36    1
    16    10    11   ar
    17    10    26    1
    18    11    12   ar
    19    11    14    1
    20    12    13   ar
    21    12    17    1
    22    13    37    1
    23    14    15    1
    24    14    25    2
    25    15    16    1
    26    15    38    1
    27    15    39    1
    28    16    17    1
    29    16    18    1
    30    16    40    1
    31    18    19   ar
    32    18    23   ar
    33    19    20   ar
    34    19    41    1
    35    20    21   ar
    36    20    42    1
    37    21    22   ar
    38    21    24    1
    39    22    23   ar
    40    22    43    1
    41    23    44    1
    42    24    45    1
    43    26    46    1
    44    27    47    1
    45    28    48    1
    46    29    49    1
    47    30    50    1
    48     1    31    1
    49     1    27    1
    50     2    32    1
    51     2    28    1
    52     4    34    1
    53     4    30    1
