@<TRIPOS>MOLECULE
*****
 50 53 0 0 0
SMALL
GASTEIGER

@<TRIPOS>ATOM
     1 C         -0.370517   -1.397849   1.63693 C.3        1 UNL1     0.1889
     2 C         -0.487719   -0.971354   0.148876 C.3        1 UNL1     0.1342
     3 C         -1.926264   -0.896907   -0.385458 C.3        1 UNL1     0.1174
     4 C         -2.841132   -1.962959   0.222545 C.3        1 UNL1     0.1456
     5 C         -2.694511   -2.064084   1.751806 C.3        1 UNL1     0.2326
     6 O         -1.336606   -2.333217   2.09317 O.3        1 UNL1     -0.3076
     7 O         -3.241834   -0.934579   2.456063 O.3        1 UNL1     -0.4605
     8 C         -3.770902   -1.198295   3.70669 C.ar        1 UNL1     0.1310
     9 C         -4.619827   -2.265634   4.018803 C.ar        1 UNL1     0.0226
     10 C         -5.090682   -2.458395   5.323043 C.ar        1 UNL1     0.1343
     11 C         -4.704515   -1.601371   6.352715 C.ar        1 UNL1     0.1007
     12 C         -3.890135   -0.508193   6.045255 C.ar        1 UNL1     0.1389
     13 C         -3.418959   -0.313069   4.733252 C.ar        1 UNL1     0.0229
     14 C         -5.104405   -1.806827   7.764108 C.2        1 UNL1     0.1740
     15 C         -4.420574   -0.925379   8.767588 C.3        1 UNL1     0.0520
     16 C         -4.307282   0.474911   8.18081 C.3        1 UNL1     0.1322
     17 O         -3.537215   0.457987   6.958607 O.3        1 UNL1     -0.4828
     18 C         -5.645975   1.209656   8.076998 C.ar        1 UNL1     -0.0067
     19 C         -5.892867   2.320197   8.910037 C.ar        1 UNL1     -0.0516
     20 C         -7.12417   2.985451   8.874101 C.ar        1 UNL1     -0.0198
     21 C         -8.117092   2.546356   8.016703 C.ar        1 UNL1     0.1169
     22 C         -7.892133   1.476413   7.160285 C.ar        1 UNL1     -0.0198
     23 C         -6.65443   0.822473   7.182848 C.ar        1 UNL1     -0.0516
     24 O         -9.316501   3.19553   8.036498 O.3        1 UNL1     -0.5068
     25 O         -5.881072   -2.686973   8.125515 O.2        1 UNL1     -0.2917
     26 O         -5.916636   -3.517996   5.561014 O.3        1 UNL1     -0.5058
     27 O         -0.23857   -0.303416   2.530011 O.3        1 UNL1     -0.3648
     28 O         0.219753   -1.931275   -0.657809 O.3        1 UNL1     -0.3841
     29 O         -2.450227   0.425529   -0.248507 O.3        1 UNL1     -0.3863
     30 O         -2.525413   -3.246264   -0.359812 O.3        1 UNL1     -0.3829
     31 H         0.576417   -1.940174   1.733262 H        1 UNL1     0.0937
     32 H         0.0   0.0   0.0 H        1 UNL1     0.0671
     33 H         -1.892369   -1.08672   -1.467374 H        1 UNL1     0.0649
     34 H         -3.88564   -1.745933   -0.02706 H        1 UNL1     0.0683
     35 H         -3.272754   -2.958828   2.014387 H        1 UNL1     0.1085
     36 H         -4.911415   -2.998723   3.274708 H        1 UNL1     0.0691
     37 H         -2.787072   0.546341   4.519651 H        1 UNL1     0.0691
     38 H         -3.431384   -1.352552   8.963938 H        1 UNL1     0.0385
     39 H         -4.990195   -0.937459   9.703091 H        1 UNL1     0.0385
     40 H         -3.702416   1.070155   8.878192 H        1 UNL1     0.0789
     41 H         -5.132987   2.678673   9.598317 H        1 UNL1     0.0623
     42 H         -7.306609   3.833173   9.529917 H        1 UNL1     0.0654
     43 H         -8.65747   1.133714   6.474188 H        1 UNL1     0.0654
     44 H         -6.509568   -0.003007   6.4926 H        1 UNL1     0.0623
     45 H         -9.343212   3.813386   7.287995 H        1 UNL1     0.2921
     46 H         -5.703487   -3.90691   6.423988 H        1 UNL1     0.2922
     47 H         0.507782   0.253849   2.268715 H        1 UNL1     0.2126
     48 H         1.171909   -1.779235   -0.502841 H        1 UNL1     0.2101
     49 H         -2.99872   0.482122   0.550084 H        1 UNL1     0.2100
     50 H         -2.782541   -3.220021   -1.304751 H        1 UNL1     0.2102
@<TRIPOS>BOND
     1     1     2    1
     2     1     6    1
     3     2     3    1
     4     3     4    1
     5     3    29    1
     6     3    33    1
     7     4     5    1
     8     5     6    1
     9     5     7    1
    10     5    35    1
    11     7     8    1
    12     8     9   ar
    13     8    13   ar
    14     9    10   ar
    15     9    36    1
    16    10    11   ar
    17    10    26    1
    18    11    12   ar
    19    11    14    1
    20    12    13   ar
    21    12    17    1
    22    13    37    1
    23    14    15    1
    24    14    25    2
    25    15    16    1
    26    15    38    1
    27    15    39    1
    28    16    17    1
    29    16    18    1
    30    16    40    1
    31    18    19   ar
    32    18    23   ar
    33    19    20   ar
    34    19    41    1
    35    20    21   ar
    36    20    42    1
    37    21    22   ar
    38    21    24    1
    39    22    23   ar
    40    22    43    1
    41    23    44    1
    42    24    45    1
    43    26    46    1
    44    27    47    1
    45    28    48    1
    46    29    49    1
    47    30    50    1
    48     1    31    1
    49     1    27    1
    50     2    32    1
    51     2    28    1
    52     4    34    1
    53     4    30    1
