@<TRIPOS>MOLECULE
*****
 50 53 0 0 0
SMALL
GASTEIGER

@<TRIPOS>ATOM
     1 C         -0.154166   -1.093672   1.884388 C.3        1 UNL1     0.1889
     2 C         -0.595519   -0.819269   0.421565 C.3        1 UNL1     0.1342
     3 C         -2.08729   -0.493007   0.252342 C.3        1 UNL1     0.1174
     4 C         -2.977594   -1.26029   1.233032 C.3        1 UNL1     0.1456
     5 C         -2.438333   -1.221021   2.674566 C.3        1 UNL1     0.2326
     6 O         -1.110809   -1.739874   2.71122 O.3        1 UNL1     -0.3076
     7 O         -2.558115   0.071387   3.296379 O.3        1 UNL1     -0.4605
     8 C         -2.762841   0.069266   4.664448 C.ar        1 UNL1     0.1310
     9 C         -2.032953   -0.682028   5.591875 C.ar        1 UNL1     0.0226
     10 C         -2.305742   -0.602556   6.962704 C.ar        1 UNL1     0.1343
     11 C         -3.300236   0.249006   7.441938 C.ar        1 UNL1     0.1007
     12 C         -4.063227   0.973308   6.522147 C.ar        1 UNL1     0.1389
     13 C         -3.790502   0.891227   5.143629 C.ar        1 UNL1     0.0229
     14 C         -3.574182   0.435042   8.885717 C.2        1 UNL1     0.1740
     15 C         -4.51886   1.549159   9.229047 C.3        1 UNL1     0.0520
     16 C         -5.649714   1.553306   8.209679 C.3        1 UNL1     0.1322
     17 O         -5.136239   1.75842   6.87501 O.3        1 UNL1     -0.4828
     18 C         -6.606373   0.3663   8.345853 C.ar        1 UNL1     -0.0067
     19 C         -7.798601   0.347825   7.593213 C.ar        1 UNL1     -0.0516
     20 C         -8.717828   -0.699298   7.729294 C.ar        1 UNL1     -0.0198
     21 C         -8.460474   -1.72775   8.618048 C.ar        1 UNL1     0.1169
     22 C         -7.27956   -1.754612   9.348499 C.ar        1 UNL1     -0.0198
     23 C         -6.351583   -0.717036   9.198999 C.ar        1 UNL1     -0.0516
     24 O         -9.396438   -2.710879   8.751573 O.3        1 UNL1     -0.5068
     25 O         -3.017105   -0.212168   9.76848 O.2        1 UNL1     -0.2917
     26 O         -1.558166   -1.362138   7.814613 O.3        1 UNL1     -0.5058
     27 O         0.413073   0.03773   2.525446 O.3        1 UNL1     -0.3648
     28 O         -0.321869   -1.993435   -0.365299 O.3        1 UNL1     -0.3841
     29 O         -2.30558   0.918617   0.29477 O.3        1 UNL1     -0.3863
     30 O         -3.070983   -2.637923   0.809835 O.3        1 UNL1     -0.3829
     31 H         0.668625   -1.815083   1.832796 H        1 UNL1     0.0937
     32 H         0.0   0.0   0.0 H        1 UNL1     0.0671
     33 H         -2.386063   -0.804193   -0.758409 H        1 UNL1     0.0649
     34 H         -3.993367   -0.850045   1.215588 H        1 UNL1     0.0683
     35 H         -3.074348   -1.933707   3.21442 H        1 UNL1     0.1085
     36 H         -1.210364   -1.320018   5.287843 H        1 UNL1     0.0691
     37 H         -4.39971   1.464407   4.448055 H        1 UNL1     0.0691
     38 H         -3.95258   2.485995   9.194533 H        1 UNL1     0.0385
     39 H         -4.884037   1.407704   10.251991 H        1 UNL1     0.0385
     40 H         -6.261368   2.443764   8.408384 H        1 UNL1     0.0789
     41 H         -8.028076   1.148024   6.895593 H        1 UNL1     0.0623
     42 H         -9.639161   -0.696098   7.152105 H        1 UNL1     0.0654
     43 H         -7.061036   -2.562855   10.036178 H        1 UNL1     0.0654
     44 H         -5.434701   -0.775648   9.777563 H        1 UNL1     0.0623
     45 H         -10.246717   -2.370688   8.429063 H        1 UNL1     0.2921
     46 H         -1.196759   -0.799283   8.517459 H        1 UNL1     0.2922
     47 H         -0.278741   0.56344   2.950747 H        1 UNL1     0.2126
     48 H         -1.093169   -2.124411   -0.949828 H        1 UNL1     0.2101
     49 H         -2.594608   1.181303   1.183169 H        1 UNL1     0.2100
     50 H         -2.478804   -3.169624   1.381088 H        1 UNL1     0.2102
@<TRIPOS>BOND
     1     1     2    1
     2     1     6    1
     3     2     3    1
     4     3     4    1
     5     3    29    1
     6     3    33    1
     7     4     5    1
     8     5     6    1
     9     5     7    1
    10     5    35    1
    11     7     8    1
    12     8     9   ar
    13     8    13   ar
    14     9    10   ar
    15     9    36    1
    16    10    11   ar
    17    10    26    1
    18    11    12   ar
    19    11    14    1
    20    12    13   ar
    21    12    17    1
    22    13    37    1
    23    14    15    1
    24    14    25    2
    25    15    16    1
    26    15    38    1
    27    15    39    1
    28    16    17    1
    29    16    18    1
    30    16    40    1
    31    18    19   ar
    32    18    23   ar
    33    19    20   ar
    34    19    41    1
    35    20    21   ar
    36    20    42    1
    37    21    22   ar
    38    21    24    1
    39    22    23   ar
    40    22    43    1
    41    23    44    1
    42    24    45    1
    43    26    46    1
    44    27    47    1
    45    28    48    1
    46    29    49    1
    47    30    50    1
    48     1    31    1
    49     1    27    1
    50     2    32    1
    51     2    28    1
    52     4    34    1
    53     4    30    1
