@<TRIPOS>MOLECULE
*****
 50 53 0 0 0
SMALL
GASTEIGER

@<TRIPOS>ATOM
     1 C         1.722273   1.195608   -0.612455 C.3        1 UNL1     0.1889
     2 C         0.855331   -0.090335   -0.681036 C.3        1 UNL1     0.1342
     3 C         1.610947   -1.390624   -0.366779 C.3        1 UNL1     0.1174
     4 C         3.060667   -1.368056   -0.857615 C.3        1 UNL1     0.1456
     5 C         3.787349   -0.060951   -0.491867 C.3        1 UNL1     0.2326
     6 O         3.075157   1.055413   -1.020434 O.3        1 UNL1     -0.3076
     7 O         4.071436   0.063023   0.913567 O.3        1 UNL1     -0.4605
     8 C         5.030369   0.998625   1.257984 C.ar        1 UNL1     0.1310
     9 C         6.098633   0.779226   2.134327 C.ar        1 UNL1     0.0226
     10 C         7.030052   1.788207   2.406939 C.ar        1 UNL1     0.1343
     11 C         6.929221   3.03481   1.790776 C.ar        1 UNL1     0.1007
     12 C         5.843589   3.279054   0.945477 C.ar        1 UNL1     0.1389
     13 C         4.905701   2.265215   0.673581 C.ar        1 UNL1     0.0229
     14 C         7.931945   4.108947   1.97766 C.2        1 UNL1     0.1740
     15 C         7.788731   5.295792   1.070776 C.3        1 UNL1     0.0520
     16 C         6.307788   5.621162   0.933297 C.3        1 UNL1     0.1322
     17 O         5.587009   4.502421   0.371188 O.3        1 UNL1     -0.4828
     18 C         5.684314   6.203526   2.204067 C.ar        1 UNL1     -0.0067
     19 C         5.125281   7.497588   2.17089 C.ar        1 UNL1     -0.0516
     20 C         4.589674   8.078529   3.326569 C.ar        1 UNL1     -0.0198
     21 C         4.613684   7.380185   4.52054 C.ar        1 UNL1     0.1169
     22 C         5.127083   6.090997   4.577583 C.ar        1 UNL1     -0.0198
     23 C         5.646026   5.502637   3.41802 C.ar        1 UNL1     -0.0516
     24 O         4.117276   7.992955   5.633416 O.3        1 UNL1     -0.5068
     25 O         8.875643   4.024395   2.759177 O.2        1 UNL1     -0.2917
     26 O         8.048068   1.51026   3.271793 O.3        1 UNL1     -0.5058
     27 O         1.616664   1.883361   0.623922 O.3        1 UNL1     -0.3648
     28 O         0.326859   -0.213563   -2.014542 O.3        1 UNL1     -0.3841
     29 O         1.501148   -1.718428   1.019807 O.3        1 UNL1     -0.3863
     30 O         3.077123   -1.522065   -2.293477 O.3        1 UNL1     -0.3829
     31 H         1.304672   1.893906   -1.345986 H        1 UNL1     0.0937
     32 H         0.0   0.0   0.0 H        1 UNL1     0.0671
     33 H         1.107341   -2.208552   -0.900723 H        1 UNL1     0.0649
     34 H         3.610904   -2.21741   -0.437808 H        1 UNL1     0.0683
     35 H         4.73559   -0.123073   -1.040373 H        1 UNL1     0.1085
     36 H         6.263975   -0.185369   2.601596 H        1 UNL1     0.0691
     37 H         4.068888   2.481064   0.012789 H        1 UNL1     0.0691
     38 H         8.225708   5.027696   0.102943 H        1 UNL1     0.0385
     39 H         8.360232   6.134052   1.483675 H        1 UNL1     0.0385
     40 H         6.219141   6.412801   0.17701 H        1 UNL1     0.0789
     41 H         5.102696   8.069907   1.248073 H        1 UNL1     0.0623
     42 H         4.172202   9.081747   3.290753 H        1 UNL1     0.0654
     43 H         5.137189   5.529366   5.504071 H        1 UNL1     0.0654
     44 H         6.029435   4.489896   3.496746 H        1 UNL1     0.0623
     45 H         3.406619   8.595607   5.360478 H        1 UNL1     0.2921
     46 H         7.881098   1.950452   4.120183 H        1 UNL1     0.2922
     47 H         2.282054   1.557739   1.246085 H        1 UNL1     0.2126
     48 H         -0.472346   0.346469   -2.051528 H        1 UNL1     0.2101
     49 H         1.060089   -2.5768   1.122067 H        1 UNL1     0.2100
     50 H         3.233457   -0.639806   -2.689571 H        1 UNL1     0.2102
@<TRIPOS>BOND
     1     1     2    1
     2     1     6    1
     3     2     3    1
     4     3     4    1
     5     3    29    1
     6     3    33    1
     7     4     5    1
     8     5     6    1
     9     5     7    1
    10     5    35    1
    11     7     8    1
    12     8     9   ar
    13     8    13   ar
    14     9    10   ar
    15     9    36    1
    16    10    11   ar
    17    10    26    1
    18    11    12   ar
    19    11    14    1
    20    12    13   ar
    21    12    17    1
    22    13    37    1
    23    14    15    1
    24    14    25    2
    25    15    16    1
    26    15    38    1
    27    15    39    1
    28    16    17    1
    29    16    18    1
    30    16    40    1
    31    18    19   ar
    32    18    23   ar
    33    19    20   ar
    34    19    41    1
    35    20    21   ar
    36    20    42    1
    37    21    22   ar
    38    21    24    1
    39    22    23   ar
    40    22    43    1
    41    23    44    1
    42    24    45    1
    43    26    46    1
    44    27    47    1
    45    28    48    1
    46    29    49    1
    47    30    50    1
    48     1    31    1
    49     1    27    1
    50     2    32    1
    51     2    28    1
    52     4    34    1
    53     4    30    1
