@<TRIPOS>MOLECULE
*****
 50 53 0 0 0
SMALL
GASTEIGER

@<TRIPOS>ATOM
     1 C         -1.74685   -0.451885   1.230902 C.3        1 UNL1     0.1889
     2 C         -0.392716   0.267594   0.988802 C.3        1 UNL1     0.1342
     3 C         0.682708   -0.016219   2.048697 C.3        1 UNL1     0.1174
     4 C         0.1004   -0.187816   3.453898 C.3        1 UNL1     0.1456
     5 C         -1.127827   -1.11593   3.474531 C.3        1 UNL1     0.2326
     6 O         -2.128029   -0.618309   2.588621 O.3        1 UNL1     -0.3076
     7 O         -0.804894   -2.499295   3.243584 O.3        1 UNL1     -0.4605
     8 C         0.542725   -2.809395   3.207669 C.ar        1 UNL1     0.1310
     9 C         1.588581   -1.8802   3.216661 C.ar        1 UNL1     0.0226
     10 C         2.925491   -2.295064   3.195141 C.ar        1 UNL1     0.1343
     11 C         3.249517   -3.651087   3.188146 C.ar        1 UNL1     0.1007
     12 C         2.21367   -4.587702   3.137592 C.ar        1 UNL1     0.1389
     13 C         0.869495   -4.170251   3.156567 C.ar        1 UNL1     0.0229
     14 C         4.644261   -4.146111   3.249744 C.2        1 UNL1     0.1740
     15 C         4.800121   -5.623751   3.459119 C.3        1 UNL1     0.0520
     16 C         3.749488   -6.342198   2.623679 C.3        1 UNL1     0.1322
     17 O         2.41869   -5.942781   3.019297 O.3        1 UNL1     -0.4828
     18 C         4.009886   -6.27651   1.116827 C.ar        1 UNL1     -0.0067
     19 C         3.793749   -5.064825   0.428846 C.ar        1 UNL1     -0.0516
     20 C         3.976702   -4.982993   -0.95672 C.ar        1 UNL1     -0.0198
     21 C         4.367611   -6.105101   -1.665164 C.ar        1 UNL1     0.1169
     22 C         4.620572   -7.303898   -1.01115 C.ar        1 UNL1     -0.0198
     23 C         4.455535   -7.381219   0.376957 C.ar        1 UNL1     -0.0516
     24 O         4.499036   -5.997069   -3.018477 O.3        1 UNL1     -0.5068
     25 O         5.625648   -3.408415   3.215562 O.2        1 UNL1     -0.2917
     26 O         3.898321   -1.338453   3.204235 O.3        1 UNL1     -0.5058
     27 O         -1.885623   -1.657701   0.496372 O.3        1 UNL1     -0.3648
     28 O         -0.625469   1.688338   0.984444 O.3        1 UNL1     -0.3841
     29 O         1.506954   -1.114573   1.653258 O.3        1 UNL1     -0.3863
     30 O         -0.286396   1.105326   3.967573 O.3        1 UNL1     -0.3829
     31 H         -2.525809   0.202514   0.824622 H        1 UNL1     0.0937
     32 H         0.0   0.0   0.0 H        1 UNL1     0.0671
     33 H         1.353742   0.853255   2.086755 H        1 UNL1     0.0649
     34 H         0.86555   -0.585424   4.129808 H        1 UNL1     0.0683
     35 H         -1.522385   -1.009947   4.492848 H        1 UNL1     0.1085
     36 H         1.403081   -0.813468   3.278252 H        1 UNL1     0.0691
     37 H         0.081568   -4.919228   3.11536 H        1 UNL1     0.0691
     38 H         4.660062   -5.823543   4.526824 H        1 UNL1     0.0385
     39 H         5.818996   -5.919387   3.186589 H        1 UNL1     0.0385
     40 H         3.804254   -7.408443   2.881831 H        1 UNL1     0.0789
     41 H         3.477706   -4.17222   0.960846 H        1 UNL1     0.0623
     42 H         3.795336   -4.046008   -1.477465 H        1 UNL1     0.0654
     43 H         4.941614   -8.184793   -1.554166 H        1 UNL1     0.0654
     44 H         4.672225   -8.330841   0.856655 H        1 UNL1     0.0623
     45 H         4.455708   -5.056817   -3.256732 H        1 UNL1     0.2921
     46 H         4.737274   -1.732926   3.490522 H        1 UNL1     0.2922
     47 H         -1.291771   -1.654783   -0.267298 H        1 UNL1     0.2126
     48 H         -1.276455   1.862942   0.277717 H        1 UNL1     0.2101
     49 H         1.736519   -1.650884   2.4288 H        1 UNL1     0.2100
     50 H         -1.070619   1.407452   3.464158 H        1 UNL1     0.2102
@<TRIPOS>BOND
     1     1     2    1
     2     1     6    1
     3     2     3    1
     4     3     4    1
     5     3    29    1
     6     3    33    1
     7     4     5    1
     8     5     6    1
     9     5     7    1
    10     5    35    1
    11     7     8    1
    12     8     9   ar
    13     8    13   ar
    14     9    10   ar
    15     9    36    1
    16    10    11   ar
    17    10    26    1
    18    11    12   ar
    19    11    14    1
    20    12    13   ar
    21    12    17    1
    22    13    37    1
    23    14    15    1
    24    14    25    2
    25    15    16    1
    26    15    38    1
    27    15    39    1
    28    16    17    1
    29    16    18    1
    30    16    40    1
    31    18    19   ar
    32    18    23   ar
    33    19    20   ar
    34    19    41    1
    35    20    21   ar
    36    20    42    1
    37    21    22   ar
    38    21    24    1
    39    22    23   ar
    40    22    43    1
    41    23    44    1
    42    24    45    1
    43    26    46    1
    44    27    47    1
    45    28    48    1
    46    29    49    1
    47    30    50    1
    48     1    31    1
    49     1    27    1
    50     2    32    1
    51     2    28    1
    52     4    34    1
    53     4    30    1
