@<TRIPOS>MOLECULE
*****
 50 53 0 0 0
SMALL
GASTEIGER

@<TRIPOS>ATOM
     1 C         -0.33892   -1.333153   1.696656 C.3        1 UNL1     0.1889
     2 C         -0.465771   -0.974641   0.191559 C.3        1 UNL1     0.1342
     3 C         -1.905661   -0.955839   -0.344006 C.3        1 UNL1     0.1174
     4 C         -2.796316   -2.014641   0.310816 C.3        1 UNL1     0.1456
     5 C         -2.647358   -2.045718   1.842876 C.3        1 UNL1     0.2326
     6 O         -1.283728   -2.269189   2.194219 O.3        1 UNL1     -0.3076
     7 O         -3.219862   -0.899161   2.497833 O.3        1 UNL1     -0.4605
     8 C         -3.732604   -1.117475   3.763914 C.ar        1 UNL1     0.1310
     9 C         -4.86653   -1.882274   4.058186 C.ar        1 UNL1     0.0226
     10 C         -5.297889   -2.058699   5.378302 C.ar        1 UNL1     0.1343
     11 C         -4.591302   -1.493667   6.439109 C.ar        1 UNL1     0.1007
     12 C         -3.481125   -0.693973   6.154886 C.ar        1 UNL1     0.1389
     13 C         -3.049136   -0.514555   4.827247 C.ar        1 UNL1     0.0229
     14 C         -4.953755   -1.716971   7.857882 C.2        1 UNL1     0.1740
     15 C         -3.960178   -1.221959   8.867495 C.3        1 UNL1     0.0520
     16 C         -3.425449   0.123814   8.397479 C.3        1 UNL1     0.1322
     17 O         -2.776607   -0.00252   7.112912 O.3        1 UNL1     -0.4828
     18 C         -4.450291   1.257534   8.481749 C.ar        1 UNL1     -0.0067
     19 C         -4.639806   2.103832   7.369959 C.ar        1 UNL1     -0.0516
     20 C         -5.534485   3.178971   7.429852 C.ar        1 UNL1     -0.0198
     21 C         -6.238559   3.422242   8.595582 C.ar        1 UNL1     0.1169
     22 C         -6.098368   2.586558   9.695953 C.ar        1 UNL1     -0.0198
     23 C         -5.217502   1.500371   9.630145 C.ar        1 UNL1     -0.0516
     24 O         -7.072558   4.500997   8.62927 O.3        1 UNL1     -0.5068
     25 O         -5.954955   -2.334667   8.210778 O.2        1 UNL1     -0.2917
     26 O         -6.411933   -2.815272   5.597596 O.3        1 UNL1     -0.5058
     27 O         -0.231525   -0.198159   2.541075 O.3        1 UNL1     -0.3648
     28 O         0.263026   -1.952688   -0.573284 O.3        1 UNL1     -0.3841
     29 O         -2.459183   0.359221   -0.264245 O.3        1 UNL1     -0.3863
     30 O         -2.451895   -3.314697   -0.215415 O.3        1 UNL1     -0.3829
     31 H         0.619961   -1.849385   1.81553 H        1 UNL1     0.0937
     32 H         0.0   0.0   0.0 H        1 UNL1     0.0671
     33 H         -1.867585   -1.191807   -1.416661 H        1 UNL1     0.0649
     34 H         -3.845451   -1.832184   0.053086 H        1 UNL1     0.0683
     35 H         -3.205343   -2.940917   2.14479 H        1 UNL1     0.1085
     36 H         -5.426489   -2.393484   3.282795 H        1 UNL1     0.0691
     37 H         -2.182587   0.113651   4.632453 H        1 UNL1     0.0691
     38 H         -3.157738   -1.964382   8.934021 H        1 UNL1     0.0385
     39 H         -4.446418   -1.155173   9.846724 H        1 UNL1     0.0385
     40 H         -2.618536   0.409765   9.085697 H        1 UNL1     0.0789
     41 H         -4.092274   1.93946   6.446465 H        1 UNL1     0.0623
     42 H         -5.66299   3.831502   6.569793 H        1 UNL1     0.0654
     43 H         -6.656056   2.759014   10.608725 H        1 UNL1     0.0654
     44 H         -5.140725   0.86192   10.504976 H        1 UNL1     0.0623
     45 H         -6.543567   5.302255   8.484806 H        1 UNL1     0.2921
     46 H         -6.196   -3.540693   6.204679 H        1 UNL1     0.2922
     47 H         0.511932   0.355663   2.264649 H        1 UNL1     0.2126
     48 H         1.198468   -1.87899   -0.302638 H        1 UNL1     0.2101
     49 H         -2.019476   0.941707   -0.903903 H        1 UNL1     0.2100
     50 H         -2.688824   -3.327669   -1.165894 H        1 UNL1     0.2102
@<TRIPOS>BOND
     1     1     2    1
     2     1     6    1
     3     2     3    1
     4     3     4    1
     5     3    29    1
     6     3    33    1
     7     4     5    1
     8     5     6    1
     9     5     7    1
    10     5    35    1
    11     7     8    1
    12     8     9   ar
    13     8    13   ar
    14     9    10   ar
    15     9    36    1
    16    10    11   ar
    17    10    26    1
    18    11    12   ar
    19    11    14    1
    20    12    13   ar
    21    12    17    1
    22    13    37    1
    23    14    15    1
    24    14    25    2
    25    15    16    1
    26    15    38    1
    27    15    39    1
    28    16    17    1
    29    16    18    1
    30    16    40    1
    31    18    19   ar
    32    18    23   ar
    33    19    20   ar
    34    19    41    1
    35    20    21   ar
    36    20    42    1
    37    21    22   ar
    38    21    24    1
    39    22    23   ar
    40    22    43    1
    41    23    44    1
    42    24    45    1
    43    26    46    1
    44    27    47    1
    45    28    48    1
    46    29    49    1
    47    30    50    1
    48     1    31    1
    49     1    27    1
    50     2    32    1
    51     2    28    1
    52     4    34    1
    53     4    30    1
