@<TRIPOS>MOLECULE
*****
 50 53 0 0 0
SMALL
GASTEIGER

@<TRIPOS>ATOM
     1 C         -0.331198   -1.327777   1.702387 C.3        1 UNL1     0.1889
     2 C         -0.46186   -0.975594   0.196121 C.3        1 UNL1     0.1342
     3 C         -1.902693   -0.964173   -0.337109 C.3        1 UNL1     0.1174
     4 C         -2.788356   -2.023687   0.323307 C.3        1 UNL1     0.1456
     5 C         -2.63675   -2.048253   1.855227 C.3        1 UNL1     0.2326
     6 O         -1.271727   -2.265338   2.205159 O.3        1 UNL1     -0.3076
     7 O         -3.21239   -0.90127   2.506677 O.3        1 UNL1     -0.4605
     8 C         -3.721804   -1.116433   3.77464 C.ar        1 UNL1     0.1310
     9 C         -4.537329   -2.189813   4.148908 C.ar        1 UNL1     0.0226
     10 C         -4.990038   -2.329841   5.466235 C.ar        1 UNL1     0.1343
     11 C         -4.618274   -1.411908   6.447576 C.ar        1 UNL1     0.1007
     12 C         -3.837961   -0.313453   6.077046 C.ar        1 UNL1     0.1389
     13 C         -3.385073   -0.171446   4.751846 C.ar        1 UNL1     0.0229
     14 C         -4.998664   -1.557276   7.871769 C.2        1 UNL1     0.1740
     15 C         -4.330306   -0.608052   8.822464 C.3        1 UNL1     0.0520
     16 C         -4.262092   0.763636   8.165369 C.3        1 UNL1     0.1322
     17 O         -3.503617   0.706703   6.937141 O.3        1 UNL1     -0.4828
     18 C         -5.621861   1.454993   8.039761 C.ar        1 UNL1     -0.0067
     19 C         -6.001514   2.016892   6.803498 C.ar        1 UNL1     -0.0516
     20 C         -7.2173   2.697457   6.666902 C.ar        1 UNL1     -0.0198
     21 C         -8.056963   2.829028   7.758453 C.ar        1 UNL1     0.1169
     22 C         -7.726089   2.257699   8.980314 C.ar        1 UNL1     -0.0198
     23 C         -6.518835   1.561174   9.112402 C.ar        1 UNL1     -0.0516
     24 O         -9.215196   3.531096   7.597217 O.3        1 UNL1     -0.5068
     25 O         -5.746757   -2.439302   8.285137 O.2        1 UNL1     -0.2917
     26 O         -5.783532   -3.398579   5.765819 O.3        1 UNL1     -0.5058
     27 O         -0.226589   -0.189119   2.542209 O.3        1 UNL1     -0.3648
     28 O         0.269269   -1.953923   -0.56613 O.3        1 UNL1     -0.3841
     29 O         -2.460923   0.349143   -0.261535 O.3        1 UNL1     -0.3863
     30 O         -2.440019   -3.324505   -0.198442 O.3        1 UNL1     -0.3829
     31 H         0.629773   -1.840012   1.821666 H        1 UNL1     0.0937
     32 H         0.0   0.0   0.0 H        1 UNL1     0.0671
     33 H         -1.865523   -1.204172   -1.408901 H        1 UNL1     0.0649
     34 H         -3.838582   -1.846094   0.066622 H        1 UNL1     0.0683
     35 H         -3.190933   -2.944316   2.161547 H        1 UNL1     0.1085
     36 H         -4.815302   -2.967077   3.44555 H        1 UNL1     0.0691
     37 H         -2.779694   0.693292   4.488716 H        1 UNL1     0.0691
     38 H         -3.32765   -0.997353   9.028989 H        1 UNL1     0.0385
     39 H         -4.890359   -0.58892   9.763608 H        1 UNL1     0.0385
     40 H         -3.667549   1.409591   8.825506 H        1 UNL1     0.0789
     41 H         -5.355796   1.935175   5.934003 H        1 UNL1     0.0623
     42 H         -7.493351   3.136633   5.711427 H        1 UNL1     0.0654
     43 H         -8.383213   2.341779   9.837653 H        1 UNL1     0.0654
     44 H         -6.297213   1.118485   10.078712 H        1 UNL1     0.0623
     45 H         -8.989865   4.438672   7.335972 H        1 UNL1     0.2921
     46 H         -5.379192   -3.910461   6.484079 H        1 UNL1     0.2922
     47 H         0.516059   0.364944   2.264093 H        1 UNL1     0.2126
     48 H         1.202146   -1.887409   -0.284972 H        1 UNL1     0.2101
     49 H         -2.022402   0.93149   -0.902132 H        1 UNL1     0.2100
     50 H         -2.673253   -3.340118   -1.149794 H        1 UNL1     0.2102
@<TRIPOS>BOND
     1     1     2    1
     2     1     6    1
     3     2     3    1
     4     3     4    1
     5     3    29    1
     6     3    33    1
     7     4     5    1
     8     5     6    1
     9     5     7    1
    10     5    35    1
    11     7     8    1
    12     8     9   ar
    13     8    13   ar
    14     9    10   ar
    15     9    36    1
    16    10    11   ar
    17    10    26    1
    18    11    12   ar
    19    11    14    1
    20    12    13   ar
    21    12    17    1
    22    13    37    1
    23    14    15    1
    24    14    25    2
    25    15    16    1
    26    15    38    1
    27    15    39    1
    28    16    17    1
    29    16    18    1
    30    16    40    1
    31    18    19   ar
    32    18    23   ar
    33    19    20   ar
    34    19    41    1
    35    20    21   ar
    36    20    42    1
    37    21    22   ar
    38    21    24    1
    39    22    23   ar
    40    22    43    1
    41    23    44    1
    42    24    45    1
    43    26    46    1
    44    27    47    1
    45    28    48    1
    46    29    49    1
    47    30    50    1
    48     1    31    1
    49     1    27    1
    50     2    32    1
    51     2    28    1
    52     4    34    1
    53     4    30    1
