@<TRIPOS>MOLECULE
*****
 50 53 0 0 0
SMALL
GASTEIGER

@<TRIPOS>ATOM
     1 C         -2.121192   0.470351   -0.223875 C.3        1 UNL1     0.1889
     2 C         -0.61799   0.793719   -0.43779 C.3        1 UNL1     0.1342
     3 C         -0.166932   2.149281   0.12742 C.3        1 UNL1     0.1174
     4 C         -1.247661   3.227665   0.01683 C.3        1 UNL1     0.1456
     5 C         -2.628341   2.729418   0.481414 C.3        1 UNL1     0.2326
     6 O         -3.007837   1.578567   -0.269846 O.3        1 UNL1     -0.3076
     7 O         -2.717226   2.531049   1.904112 O.3        1 UNL1     -0.4605
     8 C         -2.561255   1.229404   2.345613 C.ar        1 UNL1     0.1310
     9 C         -2.670705   0.805848   3.674493 C.ar        1 UNL1     0.0226
     10 C         -2.512069   -0.54149   4.020063 C.ar        1 UNL1     0.1343
     11 C         -2.263464   -1.502494   3.041029 C.ar        1 UNL1     0.1007
     12 C         -2.111339   -1.085838   1.715873 C.ar        1 UNL1     0.1389
     13 C         -2.268272   0.269334   1.369014 C.ar        1 UNL1     0.0229
     14 C         -2.17041   -2.950464   3.339153 C.2        1 UNL1     0.1740
     15 C         -2.123323   -3.857553   2.144782 C.3        1 UNL1     0.0520
     16 C         -1.235223   -3.216238   1.08745 C.3        1 UNL1     0.1322
     17 O         -1.75939   -1.930423   0.688705 O.3        1 UNL1     -0.4828
     18 C         0.251165   -3.209799   1.452599 C.ar        1 UNL1     -0.0067
     19 C         0.630765   -3.222265   2.810525 C.ar        1 UNL1     -0.0516
     20 C         1.980157   -3.169089   3.179682 C.ar        1 UNL1     -0.0198
     21 C         2.956926   -3.095956   2.202747 C.ar        1 UNL1     0.1169
     22 C         2.61604   -3.115732   0.856551 C.ar        1 UNL1     -0.0198
     23 C         1.267629   -3.187524   0.486835 C.ar        1 UNL1     -0.0516
     24 O         4.258489   -3.007325   2.60084 O.3        1 UNL1     -0.5068
     25 O         -2.20886   -3.410239   4.477403 O.2        1 UNL1     -0.2917
     26 O         -2.629915   -0.888907   5.334216 O.3        1 UNL1     -0.5058
     27 O         -2.36752   -0.350928   0.90644 O.3        1 UNL1     -0.3648
     28 O         -0.351665   0.809469   -1.852544 O.3        1 UNL1     -0.3841
     29 O         0.334412   2.002537   1.457552 O.3        1 UNL1     -0.3863
     30 O         -1.348191   3.658375   -1.357969 O.3        1 UNL1     -0.3829
     31 H         -2.43358   -0.143026   -1.076084 H        1 UNL1     0.0937
     32 H         0.0   0.0   0.0 H        1 UNL1     0.0671
     33 H         0.688355   2.494017   -0.470377 H        1 UNL1     0.0649
     34 H         -0.96225   4.105135   0.607582 H        1 UNL1     0.0683
     35 H         -3.311946   3.537923   0.19352 H        1 UNL1     0.1085
     36 H         -2.917947   1.495364   4.474217 H        1 UNL1     0.0691
     37 H         -2.143782   0.568156   0.330408 H        1 UNL1     0.0691
     38 H         -3.148809   -3.977503   1.779382 H        1 UNL1     0.0385
     39 H         -1.753599   -4.840787   2.455158 H        1 UNL1     0.0385
     40 H         -1.309646   -3.835443   0.183257 H        1 UNL1     0.0789
     41 H         -0.117348   -3.269983   3.596464 H        1 UNL1     0.0623
     42 H         2.259587   -3.167332   4.230361 H        1 UNL1     0.0654
     43 H         3.373664   -3.074035   0.083132 H        1 UNL1     0.0654
     44 H         1.038054   -3.21168   -0.574088 H        1 UNL1     0.0623
     45 H         4.276151   -2.848505   3.558536 H        1 UNL1     0.2921
     46 H         -2.365977   -1.815524   5.448805 H        1 UNL1     0.2922
     47 H         -2.96424   0.097058   1.522146 H        1 UNL1     0.2126
     48 H         0.572247   0.514294   -1.966524 H        1 UNL1     0.2101
     49 H         -0.394786   1.798045   2.064386 H        1 UNL1     0.2100
     50 H         -2.225118   3.382942   -1.696861 H        1 UNL1     0.2102
@<TRIPOS>BOND
     1     1     2    1
     2     1     6    1
     3     2     3    1
     4     3     4    1
     5     3    29    1
     6     3    33    1
     7     4     5    1
     8     5     6    1
     9     5     7    1
    10     5    35    1
    11     7     8    1
    12     8     9   ar
    13     8    13   ar
    14     9    10   ar
    15     9    36    1
    16    10    11   ar
    17    10    26    1
    18    11    12   ar
    19    11    14    1
    20    12    13   ar
    21    12    17    1
    22    13    37    1
    23    14    15    1
    24    14    25    2
    25    15    16    1
    26    15    38    1
    27    15    39    1
    28    16    17    1
    29    16    18    1
    30    16    40    1
    31    18    19   ar
    32    18    23   ar
    33    19    20   ar
    34    19    41    1
    35    20    21   ar
    36    20    42    1
    37    21    22   ar
    38    21    24    1
    39    22    23   ar
    40    22    43    1
    41    23    44    1
    42    24    45    1
    43    26    46    1
    44    27    47    1
    45    28    48    1
    46    29    49    1
    47    30    50    1
    48     1    31    1
    49     1    27    1
    50     2    32    1
    51     2    28    1
    52     4    34    1
    53     4    30    1
