@<TRIPOS>MOLECULE
*****
 50 53 0 0 0
SMALL
GASTEIGER

@<TRIPOS>ATOM
     1 C         1.29828   -0.728334   1.598375 C.3        1 UNL1     0.1889
     2 C         0.61552   -0.882851   0.212769 C.3        1 UNL1     0.1342
     3 C         -0.248138   -2.144358   0.06058 C.3        1 UNL1     0.1174
     4 C         0.319082   -3.346991   0.818902 C.3        1 UNL1     0.1456
     5 C         0.745888   -2.991511   2.254811 C.3        1 UNL1     0.2326
     6 O         1.702191   -1.934281   2.229995 O.3        1 UNL1     -0.3076
     7 O         -0.36297   -2.730978   3.134514 O.3        1 UNL1     -0.4605
     8 C         -0.417124   -3.497198   4.28495 C.ar        1 UNL1     0.1310
     9 C         0.235287   -3.201792   5.48678 C.ar        1 UNL1     0.0226
     10 C         0.104239   -4.033918   6.604945 C.ar        1 UNL1     0.1343
     11 C         -0.702323   -5.170079   6.555563 C.ar        1 UNL1     0.1007
     12 C         -1.326016   -5.49762   5.348704 C.ar        1 UNL1     0.1389
     13 C         -1.191969   -4.662184   4.223756 C.ar        1 UNL1     0.0229
     14 C         -0.94321   -6.038383   7.731223 C.2        1 UNL1     0.1740
     15 C         -2.007776   -7.081966   7.560392 C.3        1 UNL1     0.0520
     16 C         -1.884185   -7.671923   6.16231 C.3        1 UNL1     0.1322
     17 O         -2.054651   -6.648532   5.156982 O.3        1 UNL1     -0.4828
     18 C         -0.644399   -8.548873   5.970963 C.ar        1 UNL1     -0.0067
     19 C         -0.046231   -9.156936   7.093758 C.ar        1 UNL1     -0.0516
     20 C         1.115779   -9.92625   6.960151 C.ar        1 UNL1     -0.0198
     21 C         1.692152   -10.088625   5.713052 C.ar        1 UNL1     0.1169
     22 C         1.107707   -9.530017   4.583796 C.ar        1 UNL1     -0.0198
     23 C         -0.064628   -8.77596   4.714503 C.ar        1 UNL1     -0.0516
     24 O         2.844585   -10.813148   5.627235 O.3        1 UNL1     -0.5068
     25 O         -0.380678   -5.884351   8.812109 O.2        1 UNL1     -0.2917
     26 O         0.767587   -3.690111   7.746589 O.3        1 UNL1     -0.5058
     27 O         0.586019   0.11606   2.488583 O.3        1 UNL1     -0.3648
     28 O         1.640319   -0.940945   -0.796744 O.3        1 UNL1     -0.3841
     29 O         -1.609767   -1.870229   0.396661 O.3        1 UNL1     -0.3863
     30 O         1.466865   -3.857766   0.106586 O.3        1 UNL1     -0.3829
     31 H         2.242887   -0.201443   1.424642 H        1 UNL1     0.0937
     32 H         -0.0   0.0   0.0 H        1 UNL1     0.0671
     33 H         -0.259509   -2.416543   -1.004082 H        1 UNL1     0.0649
     34 H         -0.422774   -4.152606   0.851079 H        1 UNL1     0.0683
     35 H         1.271557   -3.888935   2.604354 H        1 UNL1     0.1085
     36 H         0.831568   -2.303839   5.606154 H        1 UNL1     0.0691
     37 H         -1.686821   -4.940003   3.295623 H        1 UNL1     0.0691
     38 H         -2.97738   -6.591554   7.697834 H        1 UNL1     0.0385
     39 H         -1.894717   -7.841286   8.341691 H        1 UNL1     0.0385
     40 H         -2.740753   -8.344169   6.017755 H        1 UNL1     0.0789
     41 H         -0.474156   -9.03704   8.084796 H        1 UNL1     0.0623
     42 H         1.574244   -10.380157   7.835245 H        1 UNL1     0.0654
     43 H         1.54233   -9.663381   3.600319 H        1 UNL1     0.0654
     44 H         -0.499977   -8.362953   3.809659 H        1 UNL1     0.0623
     45 H         2.814116   -11.342652   4.813961 H        1 UNL1     0.2921
     46 H         0.698053   -2.732319   7.885193 H        1 UNL1     0.2922
     47 H         -0.06428   -0.396899   2.988428 H        1 UNL1     0.2126
     48 H         2.196387   -0.147133   -0.676809 H        1 UNL1     0.2101
     49 H         -1.854626   -0.984311   0.085231 H        1 UNL1     0.2100
     50 H         2.217718   -3.898646   0.734487 H        1 UNL1     0.2102
@<TRIPOS>BOND
     1     1     2    1
     2     1     6    1
     3     2     3    1
     4     3     4    1
     5     3    29    1
     6     3    33    1
     7     4     5    1
     8     5     6    1
     9     5     7    1
    10     5    35    1
    11     7     8    1
    12     8     9   ar
    13     8    13   ar
    14     9    10   ar
    15     9    36    1
    16    10    11   ar
    17    10    26    1
    18    11    12   ar
    19    11    14    1
    20    12    13   ar
    21    12    17    1
    22    13    37    1
    23    14    15    1
    24    14    25    2
    25    15    16    1
    26    15    38    1
    27    15    39    1
    28    16    17    1
    29    16    18    1
    30    16    40    1
    31    18    19   ar
    32    18    23   ar
    33    19    20   ar
    34    19    41    1
    35    20    21   ar
    36    20    42    1
    37    21    22   ar
    38    21    24    1
    39    22    23   ar
    40    22    43    1
    41    23    44    1
    42    24    45    1
    43    26    46    1
    44    27    47    1
    45    28    48    1
    46    29    49    1
    47    30    50    1
    48     1    31    1
    49     1    27    1
    50     2    32    1
    51     2    28    1
    52     4    34    1
    53     4    30    1
