@<TRIPOS>MOLECULE
*****
 50 53 0 0 0
SMALL
GASTEIGER

@<TRIPOS>ATOM
     1 C         -0.316285   -1.30985   1.719029 C.3        1 UNL1     0.1889
     2 C         -0.470408   -0.96803   0.212595 C.3        1 UNL1     0.1342
     3 C         -1.920625   -0.94247   -0.294045 C.3        1 UNL1     0.1174
     4 C         -2.807177   -1.985306   0.391254 C.3        1 UNL1     0.1456
     5 C         -2.627507   -1.999611   1.920266 C.3        1 UNL1     0.2326
     6 O         -1.259074   -2.231303   2.246729 O.3        1 UNL1     -0.3076
     7 O         -3.176457   -0.840226   2.572802 O.3        1 UNL1     -0.4605
     8 C         -3.664939   -1.038773   3.851666 C.ar        1 UNL1     0.1310
     9 C         -4.486853   -2.098646   4.249695 C.ar        1 UNL1     0.0226
     10 C         -4.916782   -2.222396   5.576251 C.ar        1 UNL1     0.1343
     11 C         -4.515335   -1.301499   6.543014 C.ar        1 UNL1     0.1007
     12 C         -3.728239   -0.216074   6.149165 C.ar        1 UNL1     0.1389
     13 C         -3.298252   -0.09041   4.814718 C.ar        1 UNL1     0.0229
     14 C         -4.871048   -1.430661   7.975124 C.2        1 UNL1     0.1740
     15 C         -4.173256   -0.482505   8.905519 C.3        1 UNL1     0.0520
     16 C         -4.09995   0.882928   8.236059 C.3        1 UNL1     0.1322
     17 O         -3.365163   0.806547   6.994558 O.3        1 UNL1     -0.4828
     18 C         -5.452988   1.590557   8.129892 C.ar        1 UNL1     -0.0067
     19 C         -5.848389   2.147396   6.896278 C.ar        1 UNL1     -0.0516
     20 C         -7.057821   2.84231   6.776557 C.ar        1 UNL1     -0.0198
     21 C         -7.875368   2.993268   7.882295 C.ar        1 UNL1     0.1169
     22 C         -7.529121   2.427507   9.102486 C.ar        1 UNL1     -0.0198
     23 C         -6.328504   1.716709   9.217988 C.ar        1 UNL1     -0.0516
     24 O         -9.027447   3.708751   7.7367 O.3        1 UNL1     -0.5068
     25 O         -5.622409   -2.299751   8.409433 O.2        1 UNL1     -0.2917
     26 O         -5.717997   -3.278504   5.899168 O.3        1 UNL1     -0.5058
     27 O         -0.181767   -0.16597   2.54742 O.3        1 UNL1     -0.3648
     28 O         0.234063   -1.961645   -0.55497 O.3        1 UNL1     -0.3841
     29 O         -2.460752   0.378422   -0.218953 O.3        1 UNL1     -0.3863
     30 O         -2.485008   -3.294575   -0.126154 O.3        1 UNL1     -0.3829
     31 H         0.640198   -1.833339   1.824757 H        1 UNL1     0.0937
     32 H         0.0   0.0   0.0 H        1 UNL1     0.0671
     33 H         -1.906369   -1.191447   -1.364338 H        1 UNL1     0.0649
     34 H         -3.85966   -1.796377   0.152536 H        1 UNL1     0.0683
     35 H         -3.187169   -2.886063   2.244088 H        1 UNL1     0.1085
     36 H         -4.787603   -2.877874   3.557977 H        1 UNL1     0.0691
     37 H         -2.687001   0.764411   4.53339 H        1 UNL1     0.0691
     38 H         -3.171931   -0.882911   9.096699 H        1 UNL1     0.0385
     39 H         -4.715472   -0.448737   9.856645 H        1 UNL1     0.0385
     40 H         -3.485167   1.526478   8.879802 H        1 UNL1     0.0789
     41 H         -5.21999   2.050528   6.01572 H        1 UNL1     0.0623
     42 H         -7.345985   3.277352   5.822769 H        1 UNL1     0.0654
     43 H         -8.169118   2.526787   9.971081 H        1 UNL1     0.0654
     44 H         -6.094598   1.278934   10.183641 H        1 UNL1     0.0623
     45 H         -8.795573   4.61127   7.463916 H        1 UNL1     0.2921
     46 H         -5.306891   -3.78977   6.614018 H        1 UNL1     0.2922
     47 H         0.562523   0.37634   2.251123 H        1 UNL1     0.2126
     48 H         1.172758   -1.904802   -0.29162 H        1 UNL1     0.2101
     49 H         -2.026879   0.950009   -0.87228 H        1 UNL1     0.2100
     50 H         -2.736025   -3.314783   -1.072883 H        1 UNL1     0.2102
@<TRIPOS>BOND
     1     1     2    1
     2     1     6    1
     3     2     3    1
     4     3     4    1
     5     3    29    1
     6     3    33    1
     7     4     5    1
     8     5     6    1
     9     5     7    1
    10     5    35    1
    11     7     8    1
    12     8     9   ar
    13     8    13   ar
    14     9    10   ar
    15     9    36    1
    16    10    11   ar
    17    10    26    1
    18    11    12   ar
    19    11    14    1
    20    12    13   ar
    21    12    17    1
    22    13    37    1
    23    14    15    1
    24    14    25    2
    25    15    16    1
    26    15    38    1
    27    15    39    1
    28    16    17    1
    29    16    18    1
    30    16    40    1
    31    18    19   ar
    32    18    23   ar
    33    19    20   ar
    34    19    41    1
    35    20    21   ar
    36    20    42    1
    37    21    22   ar
    38    21    24    1
    39    22    23   ar
    40    22    43    1
    41    23    44    1
    42    24    45    1
    43    26    46    1
    44    27    47    1
    45    28    48    1
    46    29    49    1
    47    30    50    1
    48     1    31    1
    49     1    27    1
    50     2    32    1
    51     2    28    1
    52     4    34    1
    53     4    30    1
