@<TRIPOS>MOLECULE
*****
 50 53 0 0 0
SMALL
GASTEIGER

@<TRIPOS>ATOM
     1 C         -0.330066   -1.334554   1.6973 C.3        1 UNL1     0.1889
     2 C         -0.462786   -0.975825   0.19276 C.3        1 UNL1     0.1342
     3 C         -1.904491   -0.960302   -0.338005 C.3        1 UNL1     0.1174
     4 C         -2.790413   -2.02147   0.319399 C.3        1 UNL1     0.1456
     5 C         -2.636284   -2.052722   1.850945 C.3        1 UNL1     0.2326
     6 O         -1.270959   -2.273034   2.19767 O.3        1 UNL1     -0.3076
     7 O         -3.209361   -0.907774   2.50821 O.3        1 UNL1     -0.4605
     8 C         -3.717361   -1.127761   3.775912 C.ar        1 UNL1     0.1310
     9 C         -4.533941   -2.201587   4.146582 C.ar        1 UNL1     0.0226
     10 C         -4.98506   -2.346739   5.4639 C.ar        1 UNL1     0.1343
     11 C         -4.610619   -1.433665   6.44875 C.ar        1 UNL1     0.1007
     12 C         -3.829209   -0.33473   6.081977 C.ar        1 UNL1     0.1389
     13 C         -3.377919   -0.187564   4.756794 C.ar        1 UNL1     0.0229
     14 C         -4.98928   -1.584732   7.872811 C.2        1 UNL1     0.1740
     15 C         -4.318243   -0.640663   8.826746 C.3        1 UNL1     0.0520
     16 C         -4.248922   0.733796   8.175584 C.3        1 UNL1     0.1322
     17 O         -3.492204   0.681153   6.946082 O.3        1 UNL1     -0.4828
     18 C         -5.60785   1.427674   8.054873 C.ar        1 UNL1     -0.0067
     19 C         -5.987184   1.997997   6.822375 C.ar        1 UNL1     -0.0516
     20 C         -7.202146   2.680971   6.690559 C.ar        1 UNL1     -0.0198
     21 C         -8.041291   2.806583   7.783209 C.ar        1 UNL1     0.1169
     22 C         -7.710754   2.226986   9.001261 C.ar        1 UNL1     -0.0198
     23 C         -6.504345   1.528092   9.128469 C.ar        1 UNL1     -0.0516
     24 O         -9.198681   3.511145   7.626872 O.3        1 UNL1     -0.5068
     25 O         -5.738097   -2.467475   8.283328 O.2        1 UNL1     -0.2917
     26 O         -5.779704   -3.415628   5.759877 O.3        1 UNL1     -0.5058
     27 O         -0.222591   -0.1996   2.54176 O.3        1 UNL1     -0.3648
     28 O         0.265811   -1.95185   -0.574851 O.3        1 UNL1     -0.3841
     29 O         -2.460905   0.353396   -0.255935 O.3        1 UNL1     -0.3863
     30 O         -2.444621   -3.320511   -0.208437 O.3        1 UNL1     -0.3829
     31 H         0.630444   -1.848519   1.8128 H        1 UNL1     0.0937
     32 H         0.0   0.0   0.0 H        1 UNL1     0.0671
     33 H         -1.869417   -1.195804   -1.410865 H        1 UNL1     0.0649
     34 H         -3.840837   -1.841449   0.065226 H        1 UNL1     0.0683
     35 H         -3.191107   -2.949366   2.154394 H        1 UNL1     0.1085
     36 H         -4.814007   -2.97535   3.440201 H        1 UNL1     0.0691
     37 H         -2.771638   0.67744   4.496633 H        1 UNL1     0.0691
     38 H         -3.315876   -1.032325   9.030189 H        1 UNL1     0.0385
     39 H         -4.876985   -0.624849   9.768732 H        1 UNL1     0.0385
     40 H         -3.652537   1.375981   8.837736 H        1 UNL1     0.0789
     41 H         -5.341848   1.921054   5.952161 H        1 UNL1     0.0623
     42 H         -7.477943   3.126634   5.738019 H        1 UNL1     0.0654
     43 H         -8.367495   2.306384   9.859338 H        1 UNL1     0.0654
     44 H         -6.282977   1.078914   10.091839 H        1 UNL1     0.0623
     45 H         -8.972278   4.420096   7.371397 H        1 UNL1     0.2921
     46 H         -5.375133   -3.931245   6.47533 H        1 UNL1     0.2922
     47 H         0.520304   0.354687   2.264752 H        1 UNL1     0.2126
     48 H         1.19924   -1.88772   -0.294974 H        1 UNL1     0.2101
     49 H         -2.022823   0.937848   -0.894914 H        1 UNL1     0.2100
     50 H         -2.679461   -3.331794   -1.159455 H        1 UNL1     0.2102
@<TRIPOS>BOND
     1     1     2    1
     2     1     6    1
     3     2     3    1
     4     3     4    1
     5     3    29    1
     6     3    33    1
     7     4     5    1
     8     5     6    1
     9     5     7    1
    10     5    35    1
    11     7     8    1
    12     8     9   ar
    13     8    13   ar
    14     9    10   ar
    15     9    36    1
    16    10    11   ar
    17    10    26    1
    18    11    12   ar
    19    11    14    1
    20    12    13   ar
    21    12    17    1
    22    13    37    1
    23    14    15    1
    24    14    25    2
    25    15    16    1
    26    15    38    1
    27    15    39    1
    28    16    17    1
    29    16    18    1
    30    16    40    1
    31    18    19   ar
    32    18    23   ar
    33    19    20   ar
    34    19    41    1
    35    20    21   ar
    36    20    42    1
    37    21    22   ar
    38    21    24    1
    39    22    23   ar
    40    22    43    1
    41    23    44    1
    42    24    45    1
    43    26    46    1
    44    27    47    1
    45    28    48    1
    46    29    49    1
    47    30    50    1
    48     1    31    1
    49     1    27    1
    50     2    32    1
    51     2    28    1
    52     4    34    1
    53     4    30    1
