@<TRIPOS>MOLECULE
*****
 50 53 0 0 0
SMALL
GASTEIGER

@<TRIPOS>ATOM
     1 C         1.811219   1.218791   0.06957 C.3        1 UNL1     0.1889
     2 C         0.608441   0.515066   0.753703 C.3        1 UNL1     0.1342
     3 C         -0.295435   1.445598   1.576857 C.3        1 UNL1     0.1174
     4 C         0.481562   2.568855   2.268005 C.3        1 UNL1     0.1456
     5 C         1.481606   3.261886   1.324615 C.3        1 UNL1     0.2326
     6 O         2.387061   2.301417   0.785617 O.3        1 UNL1     -0.3076
     7 O         0.851156   4.073126   0.316775 O.3        1 UNL1     -0.4605
     8 C         1.081572   5.434396   0.402688 C.ar        1 UNL1     0.1310
     9 C         0.549464   6.402127   -0.456183 C.ar        1 UNL1     0.0226
     10 C         0.828995   7.762019   -0.276018 C.ar        1 UNL1     0.1343
     11 C         1.628985   8.189653   0.782747 C.ar        1 UNL1     0.1007
     12 C         2.199355   7.229344   1.62255 C.ar        1 UNL1     0.1389
     13 C         1.920275   5.861837   1.439601 C.ar        1 UNL1     0.0229
     14 C         1.888491   9.619524   1.069593 C.2        1 UNL1     0.1740
     15 C         2.580783   9.90567   2.369748 C.3        1 UNL1     0.0520
     16 C         3.66203   8.854907   2.581312 C.3        1 UNL1     0.1322
     17 O         3.087451   7.530275   2.629026 O.3        1 UNL1     -0.4828
     18 C         4.852839   8.995956   1.6301 C.ar        1 UNL1     -0.0067
     19 C         5.201939   7.916548   0.79271 C.ar        1 UNL1     -0.0516
     20 C         6.313659   7.995061   -0.054566 C.ar        1 UNL1     -0.0198
     21 C         7.086881   9.14213   -0.068285 C.ar        1 UNL1     0.1169
     22 C         6.748987   10.23432   0.720249 C.ar        1 UNL1     -0.0198
     23 C         5.626584   10.162972   1.554021 C.ar        1 UNL1     -0.0516
     24 O         8.183912   9.167879   -0.878385 O.3        1 UNL1     -0.5068
     25 O         1.501962   10.53491   0.347687 O.2        1 UNL1     -0.2917
     26 O         0.279724   8.655016   -1.149198 O.3        1 UNL1     -0.5058
     27 O         1.571368   1.556821   -1.287262 O.3        1 UNL1     -0.3648
     28 O         1.117579   -0.490264   1.649692 O.3        1 UNL1     -0.3841
     29 O         -1.380767   1.930266   0.783582 O.3        1 UNL1     -0.3863
     30 O         1.205808   2.022148   3.391512 O.3        1 UNL1     -0.3829
     31 H         2.62065   0.481973   0.024872 H        1 UNL1     0.0937
     32 H         -0.0   0.0   0.0 H        1 UNL1     0.0671
     33 H         -0.76012   0.845103   2.371334 H        1 UNL1     0.0649
     34 H         -0.214833   3.314325   2.667641 H        1 UNL1     0.0683
     35 H         2.064585   3.912275   1.9887 H        1 UNL1     0.1085
     36 H         -0.12439   6.138909   -1.264117 H        1 UNL1     0.0691
     37 H         2.377635   5.134021   2.106383 H        1 UNL1     0.0691
     38 H         1.826903   9.861899   3.163017 H        1 UNL1     0.0385
     39 H         2.990091   10.9213   2.342525 H        1 UNL1     0.0385
     40 H         4.073647   9.012031   3.587495 H        1 UNL1     0.0789
     41 H         4.616417   7.001773   0.791697 H        1 UNL1     0.0623
     42 H         6.579519   7.151501   -0.686814 H        1 UNL1     0.0654
     43 H         7.338838   11.143049   0.706158 H        1 UNL1     0.0654
     44 H         5.385822   11.038913   2.148669 H        1 UNL1     0.0623
     45 H         8.041215   9.837625   -1.566712 H        1 UNL1     0.2921
     46 H         0.470967   9.558354   -0.851174 H        1 UNL1     0.2922
     47 H         2.408685   1.706639   -1.748039 H        1 UNL1     0.2126
     48 H         0.614146   -1.307243   1.468495 H        1 UNL1     0.2101
     49 H         -1.325829   1.560503   -0.111991 H        1 UNL1     0.2100
     50 H         0.745975   1.206082   3.678396 H        1 UNL1     0.2102
@<TRIPOS>BOND
     1     1     2    1
     2     1     6    1
     3     2     3    1
     4     3     4    1
     5     3    29    1
     6     3    33    1
     7     4     5    1
     8     5     6    1
     9     5     7    1
    10     5    35    1
    11     7     8    1
    12     8     9   ar
    13     8    13   ar
    14     9    10   ar
    15     9    36    1
    16    10    11   ar
    17    10    26    1
    18    11    12   ar
    19    11    14    1
    20    12    13   ar
    21    12    17    1
    22    13    37    1
    23    14    15    1
    24    14    25    2
    25    15    16    1
    26    15    38    1
    27    15    39    1
    28    16    17    1
    29    16    18    1
    30    16    40    1
    31    18    19   ar
    32    18    23   ar
    33    19    20   ar
    34    19    41    1
    35    20    21   ar
    36    20    42    1
    37    21    22   ar
    38    21    24    1
    39    22    23   ar
    40    22    43    1
    41    23    44    1
    42    24    45    1
    43    26    46    1
    44    27    47    1
    45    28    48    1
    46    29    49    1
    47    30    50    1
    48     1    31    1
    49     1    27    1
    50     2    32    1
    51     2    28    1
    52     4    34    1
    53     4    30    1
