@<TRIPOS>MOLECULE
*****
 50 53 0 0 0
SMALL
GASTEIGER

@<TRIPOS>ATOM
     1 C         -0.326237   -1.360682   1.677176 C.3        1 UNL1     0.1889
     2 C         -0.465333   -0.977172   0.17934 C.3        1 UNL1     0.1342
     3 C         -1.909662   -0.947948   -0.343656 C.3        1 UNL1     0.1174
     4 C         -2.79606   -2.016476   0.301064 C.3        1 UNL1     0.1456
     5 C         -2.634231   -2.073066   1.831088 C.3        1 UNL1     0.2326
     6 O         -1.267962   -2.3038   2.167153 O.3        1 UNL1     -0.3076
     7 O         -3.19979   -0.936886   2.509732 O.3        1 UNL1     -0.4605
     8 C         -3.712335   -1.177939   3.771762 C.ar        1 UNL1     0.1310
     9 C         -4.538132   -2.252431   4.119363 C.ar        1 UNL1     0.0226
     10 C         -4.993322   -2.420096   5.4326 C.ar        1 UNL1     0.1343
     11 C         -4.613945   -1.529693   6.436142 C.ar        1 UNL1     0.1007
     12 C         -3.82313   -0.429896   6.092861 C.ar        1 UNL1     0.1389
     13 C         -3.367735   -0.260064   4.7718 C.ar        1 UNL1     0.0229
     14 C         -4.996966   -1.705957   7.856135 C.2        1 UNL1     0.1740
     15 C         -4.32069   -0.78629   8.83 C.3        1 UNL1     0.0520
     16 C         -4.239145   0.600213   8.206367 C.3        1 UNL1     0.1322
     17 O         -3.480112   0.56598   6.977641 O.3        1 UNL1     -0.4828
     18 C         -5.592321   1.30703   8.096608 C.ar        1 UNL1     -0.0067
     19 C         -5.958034   1.917536   6.879337 C.ar        1 UNL1     -0.0516
     20 C         -7.167239   2.61278   6.759248 C.ar        1 UNL1     -0.0198
     21 C         -8.014095   2.710744   7.848773 C.ar        1 UNL1     0.1169
     22 C         -7.697125   2.091754   9.050947 C.ar        1 UNL1     -0.0198
     23 C         -6.496545   1.3808   9.165875 C.ar        1 UNL1     -0.0516
     24 O         -9.16539   3.427911   7.705281 O.3        1 UNL1     -0.5068
     25 O         -5.753593   -2.590734   8.247505 O.2        1 UNL1     -0.2917
     26 O         -5.796978   -3.488346   5.705667 O.3        1 UNL1     -0.5058
     27 O         -0.210339   -0.239936   2.539315 O.3        1 UNL1     -0.3648
     28 O         0.255794   -1.943216   -0.607706 O.3        1 UNL1     -0.3841
     29 O         -2.460881   0.366212   -0.237481 O.3        1 UNL1     -0.3863
     30 O         -2.457679   -3.308017   -0.24949 O.3        1 UNL1     -0.3829
     31 H         0.632979   -1.87985   1.77939 H        1 UNL1     0.0937
     32 H         0.0   0.0   0.0 H        1 UNL1     0.0671
     33 H         -1.880918   -1.166172   -1.420351 H        1 UNL1     0.0649
     34 H         -3.847107   -1.828641   0.05526 H        1 UNL1     0.0683
     35 H         -3.190746   -2.972533   2.122856 H        1 UNL1     0.1085
     36 H         -4.822669   -3.009817   3.397195 H        1 UNL1     0.0691
     37 H         -2.754113   0.605122   4.530107 H        1 UNL1     0.0691
     38 H         -3.321881   -1.18979   9.027723 H        1 UNL1     0.0385
     39 H         -4.881399   -0.784742   9.770947 H        1 UNL1     0.0385
     40 H         -3.639231   1.224434   8.882364 H        1 UNL1     0.0789
     41 H         -5.3064   1.862765   6.012144 H        1 UNL1     0.0623
     42 H         -7.432478   3.089375   5.81876 H        1 UNL1     0.0654
     43 H         -8.360053   2.149433   9.905996 H        1 UNL1     0.0654
     44 H         -6.285842   0.900744   10.116662 H        1 UNL1     0.0623
     45 H         -8.930319   4.34948   7.509912 H        1 UNL1     0.2921
     46 H         -5.398747   -4.020448   6.412556 H        1 UNL1     0.2922
     47 H         0.520234   0.326954   2.255135 H        1 UNL1     0.2126
     48 H         1.197129   -1.857318   -0.362264 H        1 UNL1     0.2101
     49 H         -2.029725   0.957421   -0.874953 H        1 UNL1     0.2100
     50 H         -2.702627   -3.305   -1.198017 H        1 UNL1     0.2102
@<TRIPOS>BOND
     1     1     2    1
     2     1     6    1
     3     2     3    1
     4     3     4    1
     5     3    29    1
     6     3    33    1
     7     4     5    1
     8     5     6    1
     9     5     7    1
    10     5    35    1
    11     7     8    1
    12     8     9   ar
    13     8    13   ar
    14     9    10   ar
    15     9    36    1
    16    10    11   ar
    17    10    26    1
    18    11    12   ar
    19    11    14    1
    20    12    13   ar
    21    12    17    1
    22    13    37    1
    23    14    15    1
    24    14    25    2
    25    15    16    1
    26    15    38    1
    27    15    39    1
    28    16    17    1
    29    16    18    1
    30    16    40    1
    31    18    19   ar
    32    18    23   ar
    33    19    20   ar
    34    19    41    1
    35    20    21   ar
    36    20    42    1
    37    21    22   ar
    38    21    24    1
    39    22    23   ar
    40    22    43    1
    41    23    44    1
    42    24    45    1
    43    26    46    1
    44    27    47    1
    45    28    48    1
    46    29    49    1
    47    30    50    1
    48     1    31    1
    49     1    27    1
    50     2    32    1
    51     2    28    1
    52     4    34    1
    53     4    30    1
