@<TRIPOS>MOLECULE
*****
 50 53 0 0 0
SMALL
GASTEIGER

@<TRIPOS>ATOM
     1 C         1.138436   1.147178   -1.469268 C.3        1 UNL1     0.1889
     2 C         -0.168312   0.468468   -0.977635 C.3        1 UNL1     0.1342
     3 C         -0.749276   -0.577681   -1.941232 C.3        1 UNL1     0.1174
     4 C         -0.533346   -0.214134   -3.412397 C.3        1 UNL1     0.1456
     5 C         0.908265   0.242101   -3.702175 C.3        1 UNL1     0.2326
     6 O         1.243673   1.350684   -2.870663 O.3        1 UNL1     -0.3076
     7 O         1.87129   -0.825482   -3.637585 O.3        1 UNL1     -0.4605
     8 C         3.167599   -0.45466   -3.328389 C.ar        1 UNL1     0.1310
     9 C         4.183426   -1.324835   -2.918277 C.ar        1 UNL1     0.0226
     10 C         5.472879   -0.853791   -2.643812 C.ar        1 UNL1     0.1343
     11 C         5.78428   0.496664   -2.795928 C.ar        1 UNL1     0.1007
     12 C         4.767822   1.381646   -3.16526 C.ar        1 UNL1     0.1389
     13 C         3.470701   0.908167   -3.438619 C.ar        1 UNL1     0.0229
     14 C         7.150355   1.035055   -2.600663 C.2        1 UNL1     0.1740
     15 C         7.352529   2.461068   -3.021567 C.3        1 UNL1     0.0520
     16 C         6.126938   3.263943   -2.607711 C.3        1 UNL1     0.1322
     17 O         4.936305   2.74483   -3.240155 O.3        1 UNL1     -0.4828
     18 C         6.004981   3.466725   -1.095517 C.ar        1 UNL1     -0.0067
     19 C         6.830777   4.413219   -0.454874 C.ar        1 UNL1     -0.0516
     20 C         6.778188   4.589867   0.932927 C.ar        1 UNL1     -0.0198
     21 C         5.91126   3.822725   1.690394 C.ar        1 UNL1     0.1169
     22 C         5.061677   2.906202   1.084562 C.ar        1 UNL1     -0.0198
     23 C         5.100923   2.742421   -0.305292 C.ar        1 UNL1     -0.0516
     24 O         5.914826   3.995848   3.043323 O.3        1 UNL1     -0.5068
     25 O         8.092906   0.357897   -2.198741 O.2        1 UNL1     -0.2917
     26 O         6.418007   -1.754195   -2.246833 O.3        1 UNL1     -0.5058
     27 O         2.315146   0.561542   -0.935255 O.3        1 UNL1     -0.3648
     28 O         -1.17021   1.486168   -0.795449 O.3        1 UNL1     -0.3841
     29 O         -0.271367   -1.885149   -1.618338 O.3        1 UNL1     -0.3863
     30 O         -1.438909   0.850818   -3.775057 O.3        1 UNL1     -0.3829
     31 H         1.134875   2.164286   -1.06238 H        1 UNL1     0.0937
     32 H         0.0   -0.0   0.0 H        1 UNL1     0.0671
     33 H         -1.835594   -0.615907   -1.779455 H        1 UNL1     0.0649
     34 H         -0.776066   -1.072057   -4.049152 H        1 UNL1     0.0683
     35 H         0.864875   0.617613   -4.732217 H        1 UNL1     0.1085
     36 H         4.019612   -2.393654   -2.83514 H        1 UNL1     0.0691
     37 H         2.69682   1.617769   -3.723342 H        1 UNL1     0.0691
     38 H         7.481918   2.470214   -4.109087 H        1 UNL1     0.0385
     39 H         8.271637   2.843347   -2.56453 H        1 UNL1     0.0385
     40 H         6.243523   4.272203   -3.02764 H        1 UNL1     0.0789
     41 H         7.52626   5.021225   -1.026086 H        1 UNL1     0.0623
     42 H         7.428543   5.314527   1.416578 H        1 UNL1     0.0654
     43 H         4.368253   2.310944   1.666576 H        1 UNL1     0.0654
     44 H         4.415623   2.024975   -0.746292 H        1 UNL1     0.0623
     45 H         5.205724   4.617365   3.274855 H        1 UNL1     0.2921
     46 H         7.276409   -1.308778   -2.16834 H        1 UNL1     0.2922
     47 H         2.392027   0.764549   0.007474 H        1 UNL1     0.2126
     48 H         -2.001698   1.023799   -0.575052 H        1 UNL1     0.2101
     49 H         0.647731   -1.982941   -1.914122 H        1 UNL1     0.2100
     50 H         -2.291878   0.688929   -3.321242 H        1 UNL1     0.2102
@<TRIPOS>BOND
     1     1     2    1
     2     1     6    1
     3     2     3    1
     4     3     4    1
     5     3    29    1
     6     3    33    1
     7     4     5    1
     8     5     6    1
     9     5     7    1
    10     5    35    1
    11     7     8    1
    12     8     9   ar
    13     8    13   ar
    14     9    10   ar
    15     9    36    1
    16    10    11   ar
    17    10    26    1
    18    11    12   ar
    19    11    14    1
    20    12    13   ar
    21    12    17    1
    22    13    37    1
    23    14    15    1
    24    14    25    2
    25    15    16    1
    26    15    38    1
    27    15    39    1
    28    16    17    1
    29    16    18    1
    30    16    40    1
    31    18    19   ar
    32    18    23   ar
    33    19    20   ar
    34    19    41    1
    35    20    21   ar
    36    20    42    1
    37    21    22   ar
    38    21    24    1
    39    22    23   ar
    40    22    43    1
    41    23    44    1
    42    24    45    1
    43    26    46    1
    44    27    47    1
    45    28    48    1
    46    29    49    1
    47    30    50    1
    48     1    31    1
    49     1    27    1
    50     2    32    1
    51     2    28    1
    52     4    34    1
    53     4    30    1
