@<TRIPOS>MOLECULE
*****
 50 53 0 0 0
SMALL
GASTEIGER

@<TRIPOS>ATOM
     1 C         -0.332131   -1.328131   1.701928 C.3        1 UNL1     0.1889
     2 C         -0.462483   -0.975369   0.195772 C.3        1 UNL1     0.1342
     3 C         -1.903277   -0.962868   -0.337539 C.3        1 UNL1     0.1174
     4 C         -2.789644   -2.022044   0.322475 C.3        1 UNL1     0.1456
     5 C         -2.638144   -2.047212   1.854395 C.3        1 UNL1     0.2326
     6 O         -1.273277   -2.265269   2.204336 O.3        1 UNL1     -0.3076
     7 O         -3.213103   -0.900082   2.50619 O.3        1 UNL1     -0.4605
     8 C         -3.722727   -1.115345   3.774052 C.ar        1 UNL1     0.1310
     9 C         -4.538947   -2.188336   4.147918 C.ar        1 UNL1     0.0226
     10 C         -4.991821   -2.328516   5.465171 C.ar        1 UNL1     0.1343
     11 C         -4.619539   -1.41114   6.446838 C.ar        1 UNL1     0.1007
     12 C         -3.838516   -0.313053   6.076717 C.ar        1 UNL1     0.1389
     13 C         -3.38546   -0.170892   4.75159 C.ar        1 UNL1     0.0229
     14 C         -5.000104   -1.55674   7.87096 C.2        1 UNL1     0.1740
     15 C         -4.331207   -0.60825   8.822008 C.3        1 UNL1     0.0520
     16 C         -4.262094   0.763613   8.16537 C.3        1 UNL1     0.1322
     17 O         -3.503582   0.706609   6.937168 O.3        1 UNL1     -0.4828
     18 C         -5.621422   1.455864   8.039911 C.ar        1 UNL1     -0.0067
     19 C         -6.00065   2.018409   6.803811 C.ar        1 UNL1     -0.0516
     20 C         -7.216001   2.699782   6.667368 C.ar        1 UNL1     -0.0198
     21 C         -8.055645   2.831518   7.758913 C.ar        1 UNL1     0.1169
     22 C         -7.725202   2.259578   8.980605 C.ar        1 UNL1     -0.0198
     23 C         -6.518393   1.562253   9.112534 C.ar        1 UNL1     -0.0516
     24 O         -9.213428   3.534366   7.59784 O.3        1 UNL1     -0.5068
     25 O         -5.748775   -2.438433   8.283993 O.2        1 UNL1     -0.2917
     26 O         -5.786003   -3.396855   5.764356 O.3        1 UNL1     -0.5058
     27 O         -0.226857   -0.189816   2.542133 O.3        1 UNL1     -0.3648
     28 O         0.268077   -1.953905   -0.56676 O.3        1 UNL1     -0.3841
     29 O         -2.460688   0.350773   -0.261564 O.3        1 UNL1     -0.3863
     30 O         -2.442092   -3.322908   -0.199684 O.3        1 UNL1     -0.3829
     31 H         0.628512   -1.841009   1.821095 H        1 UNL1     0.0937
     32 H         0.0   0.0   0.0 H        1 UNL1     0.0671
     33 H         -1.866194   -1.202536   -1.409408 H        1 UNL1     0.0649
     34 H         -3.839743   -1.843708   0.065786 H        1 UNL1     0.0683
     35 H         -3.192907   -2.943028   2.160386 H        1 UNL1     0.1085
     36 H         -4.817366   -2.965193   3.444287 H        1 UNL1     0.0691
     37 H         -2.779523   0.693553   4.488781 H        1 UNL1     0.0691
     38 H         -3.328808   -0.998248   9.028464 H        1 UNL1     0.0385
     39 H         -4.891303   -0.589077   9.763126 H        1 UNL1     0.0385
     40 H         -3.667185   1.408976   8.825755 H        1 UNL1     0.0789
     41 H         -5.354932   1.936574   5.934327 H        1 UNL1     0.0623
     42 H         -7.491719   3.139446   5.712022 H        1 UNL1     0.0654
     43 H         -8.382324   2.343788   9.837932 H        1 UNL1     0.0654
     44 H         -6.297105   1.119106   10.07871 H        1 UNL1     0.0623
     45 H         -8.987512   4.441886   7.336909 H        1 UNL1     0.2921
     46 H         -5.382026   -3.909227   6.482471 H        1 UNL1     0.2922
     47 H         0.516154   0.363873   2.264244 H        1 UNL1     0.2126
     48 H         1.200978   -1.888068   -0.285525 H        1 UNL1     0.2101
     49 H         -2.021764   0.933057   -0.901943 H        1 UNL1     0.2100
     50 H         -2.67528   -3.338061   -1.151055 H        1 UNL1     0.2102
@<TRIPOS>BOND
     1     1     2    1
     2     1     6    1
     3     2     3    1
     4     3     4    1
     5     3    29    1
     6     3    33    1
     7     4     5    1
     8     5     6    1
     9     5     7    1
    10     5    35    1
    11     7     8    1
    12     8     9   ar
    13     8    13   ar
    14     9    10   ar
    15     9    36    1
    16    10    11   ar
    17    10    26    1
    18    11    12   ar
    19    11    14    1
    20    12    13   ar
    21    12    17    1
    22    13    37    1
    23    14    15    1
    24    14    25    2
    25    15    16    1
    26    15    38    1
    27    15    39    1
    28    16    17    1
    29    16    18    1
    30    16    40    1
    31    18    19   ar
    32    18    23   ar
    33    19    20   ar
    34    19    41    1
    35    20    21   ar
    36    20    42    1
    37    21    22   ar
    38    21    24    1
    39    22    23   ar
    40    22    43    1
    41    23    44    1
    42    24    45    1
    43    26    46    1
    44    27    47    1
    45    28    48    1
    46    29    49    1
    47    30    50    1
    48     1    31    1
    49     1    27    1
    50     2    32    1
    51     2    28    1
    52     4    34    1
    53     4    30    1
