@<TRIPOS>MOLECULE
*****
 50 53 0 0 0
SMALL
GASTEIGER

@<TRIPOS>ATOM
     1 C         -1.816857   -0.748203   0.953953 C.3        1 UNL1     0.1889
     2 C         -0.554862   0.155617   0.933527 C.3        1 UNL1     0.1342
     3 C         0.397556   -0.045971   2.122109 C.3        1 UNL1     0.1174
     4 C         -0.338564   -0.374156   3.42347 C.3        1 UNL1     0.1456
     5 C         -1.418522   -1.455013   3.234253 C.3        1 UNL1     0.2326
     6 O         -2.349954   -1.042111   2.236849 O.3        1 UNL1     -0.3076
     7 O         -0.879748   -2.768199   2.996378 O.3        1 UNL1     -0.4605
     8 C         -0.718438   -3.568666   4.112962 C.ar        1 UNL1     0.1310
     9 C         -1.30697   -4.823708   4.302171 C.ar        1 UNL1     0.0226
     10 C         -1.068004   -5.56739   5.463952 C.ar        1 UNL1     0.1343
     11 C         -0.214926   -5.084009   6.455133 C.ar        1 UNL1     0.1007
     12 C         0.346131   -3.814093   6.296034 C.ar        1 UNL1     0.1389
     13 C         0.103598   -3.065377   5.128973 C.ar        1 UNL1     0.0229
     14 C         0.138813   -5.863891   7.663771 C.2        1 UNL1     0.1740
     15 C         1.23725   -5.288941   8.509005 C.3        1 UNL1     0.0520
     16 C         1.053303   -3.779111   8.576338 C.3        1 UNL1     0.1322
     17 O         1.11326   -3.195843   7.256007 O.3        1 UNL1     -0.4828
     18 C         -0.154566   -3.342054   9.408659 C.ar        1 UNL1     -0.0067
     19 C         0.037281   -2.480263   10.508079 C.ar        1 UNL1     -0.0516
     20 C         -1.038865   -2.099195   11.318424 C.ar        1 UNL1     -0.0198
     21 C         -2.307653   -2.5779   11.044846 C.ar        1 UNL1     0.1169
     22 C         -2.533809   -3.401188   9.949451 C.ar        1 UNL1     -0.0198
     23 C         -1.46092   -3.767598   9.128044 C.ar        1 UNL1     -0.0516
     24 O         -3.324682   -2.215541   11.878362 O.3        1 UNL1     -0.5068
     25 O         -0.361227   -6.952006   7.936627 O.2        1 UNL1     -0.2917
     26 O         -1.673436   -6.783849   5.587508 O.3        1 UNL1     -0.5058
     27 O         -1.688159   -1.916888   0.159977 O.3        1 UNL1     -0.3648
     28 O         -0.978756   1.531353   0.952796 O.3        1 UNL1     -0.3841
     29 O         1.410994   -1.001727   1.803354 O.3        1 UNL1     -0.3863
     30 O         -0.965458   0.824871   3.928471 O.3        1 UNL1     -0.3829
     31 H         -2.617112   -0.179095   0.468374 H        1 UNL1     0.0937
     32 H         0.0   0.0   0.0 H        1 UNL1     0.0671
     33 H         0.930956   0.90032   2.288657 H        1 UNL1     0.0649
     34 H         0.376555   -0.706674   4.184021 H        1 UNL1     0.0683
     35 H         -1.956846   -1.461294   4.190311 H        1 UNL1     0.1085
     36 H         -1.935096   -5.279038   3.544376 H        1 UNL1     0.0691
     37 H         0.551423   -2.078909   5.029839 H        1 UNL1     0.0691
     38 H         2.19008   -5.550038   8.036279 H        1 UNL1     0.0385
     39 H         1.208366   -5.754183   9.500214 H        1 UNL1     0.0385
     40 H         1.929007   -3.369251   9.097565 H        1 UNL1     0.0789
     41 H         1.024971   -2.098202   10.749221 H        1 UNL1     0.0623
     42 H         -0.876109   -1.443678   12.170374 H        1 UNL1     0.0654
     43 H         -3.525883   -3.769672   9.717248 H        1 UNL1     0.0654
     44 H         -1.675719   -4.403577   8.274676 H        1 UNL1     0.0623
     45 H         -3.940009   -1.650364   11.383727 H        1 UNL1     0.2921
     46 H         -2.635062   -6.663374   5.634118 H        1 UNL1     0.2922
     47 H         -2.494035   -2.449267   0.214713 H        1 UNL1     0.2126
     48 H         -1.598175   1.643646   0.206176 H        1 UNL1     0.2101
     49 H         2.182644   -0.550807   1.425171 H        1 UNL1     0.2100
     50 H         -1.914646   0.630666   4.073522 H        1 UNL1     0.2102
@<TRIPOS>BOND
     1     1     2    1
     2     1     6    1
     3     2     3    1
     4     3     4    1
     5     3    29    1
     6     3    33    1
     7     4     5    1
     8     5     6    1
     9     5     7    1
    10     5    35    1
    11     7     8    1
    12     8     9   ar
    13     8    13   ar
    14     9    10   ar
    15     9    36    1
    16    10    11   ar
    17    10    26    1
    18    11    12   ar
    19    11    14    1
    20    12    13   ar
    21    12    17    1
    22    13    37    1
    23    14    15    1
    24    14    25    2
    25    15    16    1
    26    15    38    1
    27    15    39    1
    28    16    17    1
    29    16    18    1
    30    16    40    1
    31    18    19   ar
    32    18    23   ar
    33    19    20   ar
    34    19    41    1
    35    20    21   ar
    36    20    42    1
    37    21    22   ar
    38    21    24    1
    39    22    23   ar
    40    22    43    1
    41    23    44    1
    42    24    45    1
    43    26    46    1
    44    27    47    1
    45    28    48    1
    46    29    49    1
    47    30    50    1
    48     1    31    1
    49     1    27    1
    50     2    32    1
    51     2    28    1
    52     4    34    1
    53     4    30    1
