@<TRIPOS>MOLECULE
*****
 50 53 0 0 0
SMALL
GASTEIGER

@<TRIPOS>ATOM
     1 C         -0.334612   -1.32991   1.700053 C.3        1 UNL1     0.1889
     2 C         -0.463941   -0.974967   0.19432 C.3        1 UNL1     0.1342
     3 C         -1.904532   -0.959705   -0.339468 C.3        1 UNL1     0.1174
     4 C         -2.792635   -2.018489   0.318837 C.3        1 UNL1     0.1456
     5 C         -2.6417   -2.045903   1.850774 C.3        1 UNL1     0.2326
     6 O         -1.277266   -2.266369   2.200894 O.3        1 UNL1     -0.3076
     7 O         -3.215247   -0.898819   2.503893 O.3        1 UNL1     -0.4605
     8 C         -3.72604   -1.115139   3.771104 C.ar        1 UNL1     0.1310
     9 C         -4.544218   -2.187374   4.142853 C.ar        1 UNL1     0.0226
     10 C         -4.998173   -2.328775   5.459604 C.ar        1 UNL1     0.1343
     11 C         -4.625064   -1.413448   6.442867 C.ar        1 UNL1     0.1007
     12 C         -3.842045   -0.316066   6.074876 C.ar        1 UNL1     0.1389
     13 C         -3.3879   -0.172673   4.750255 C.ar        1 UNL1     0.0229
     14 C         -5.006788   -1.560543   7.866525 C.2        1 UNL1     0.1740
     15 C         -4.336994   -0.614531   8.819408 C.3        1 UNL1     0.0520
     16 C         -4.26526   0.758188   8.164844 C.3        1 UNL1     0.1322
     17 O         -3.506041   0.701786   6.937051 O.3        1 UNL1     -0.4828
     18 C         -5.623397   1.452798   8.039527 C.ar        1 UNL1     -0.0067
     19 C         -6.000131   2.019409   6.804523 C.ar        1 UNL1     -0.0516
     20 C         -7.214293   2.70296   6.668385 C.ar        1 UNL1     -0.0198
     21 C         -8.055211   2.832836   7.759171 C.ar        1 UNL1     0.1169
     22 C         -7.727257   2.256943   8.979676 C.ar        1 UNL1     -0.0198
     23 C         -6.521654   1.557466   9.111243 C.ar        1 UNL1     -0.0516
     24 O         -9.211741   3.537846   7.598541 O.3        1 UNL1     -0.5068
     25 O         -5.757136   -2.441646   8.277768 O.2        1 UNL1     -0.2917
     26 O         -5.794257   -3.396283   5.756693 O.3        1 UNL1     -0.5058
     27 O         -0.228005   -0.192861   2.541801 O.3        1 UNL1     -0.3648
     28 O         0.265487   -1.953532   -0.569257 O.3        1 UNL1     -0.3841
     29 O         -2.460095   0.354628   -0.261944 O.3        1 UNL1     -0.3863
     30 O         -2.446758   -3.319155   -0.204926 O.3        1 UNL1     -0.3829
     31 H         0.625258   -1.844314   1.818869 H        1 UNL1     0.0937
     32 H         0.0   0.0   0.0 H        1 UNL1     0.0671
     33 H         -1.86742   -1.198005   -1.411641 H        1 UNL1     0.0649
     34 H         -3.84239   -1.838316   0.062025 H        1 UNL1     0.0683
     35 H         -3.197844   -2.941331   2.155388 H        1 UNL1     0.1085
     36 H         -4.823421   -2.962744   3.437894 H        1 UNL1     0.0691
     37 H         -2.78041   0.691189   4.489118 H        1 UNL1     0.0691
     38 H         -3.335354   -1.006437   9.025937 H        1 UNL1     0.0385
     39 H         -4.897672   -0.595853   9.76019 H        1 UNL1     0.0385
     40 H         -3.669749   1.401622   8.826569 H        1 UNL1     0.0789
     41 H         -5.353364   1.93909   5.935678 H        1 UNL1     0.0623
     42 H         -7.488077   3.14574   5.713922 H        1 UNL1     0.0654
     43 H         -8.385408   2.339688   9.836356 H        1 UNL1     0.0654
     44 H         -6.302321   1.111251   10.076453 H        1 UNL1     0.0623
     45 H         -8.984138   4.445769   7.340492 H        1 UNL1     0.2921
     46 H         -5.391568   -3.910362   6.474312 H        1 UNL1     0.2922
     47 H         0.515891   0.360136   2.264901 H        1 UNL1     0.2126
     48 H         1.198384   -1.889399   -0.287615 H        1 UNL1     0.2101
     49 H         -2.020239   0.93709   -0.90152 H        1 UNL1     0.2100
     50 H         -2.679639   -3.332714   -1.156396 H        1 UNL1     0.2102
@<TRIPOS>BOND
     1     1     2    1
     2     1     6    1
     3     2     3    1
     4     3     4    1
     5     3    29    1
     6     3    33    1
     7     4     5    1
     8     5     6    1
     9     5     7    1
    10     5    35    1
    11     7     8    1
    12     8     9   ar
    13     8    13   ar
    14     9    10   ar
    15     9    36    1
    16    10    11   ar
    17    10    26    1
    18    11    12   ar
    19    11    14    1
    20    12    13   ar
    21    12    17    1
    22    13    37    1
    23    14    15    1
    24    14    25    2
    25    15    16    1
    26    15    38    1
    27    15    39    1
    28    16    17    1
    29    16    18    1
    30    16    40    1
    31    18    19   ar
    32    18    23   ar
    33    19    20   ar
    34    19    41    1
    35    20    21   ar
    36    20    42    1
    37    21    22   ar
    38    21    24    1
    39    22    23   ar
    40    22    43    1
    41    23    44    1
    42    24    45    1
    43    26    46    1
    44    27    47    1
    45    28    48    1
    46    29    49    1
    47    30    50    1
    48     1    31    1
    49     1    27    1
    50     2    32    1
    51     2    28    1
    52     4    34    1
    53     4    30    1
