@<TRIPOS>MOLECULE
*****
 50 53 0 0 0
SMALL
GASTEIGER

@<TRIPOS>ATOM
     1 C         -0.369534   -1.397459   1.637485 C.3        1 UNL1     0.1889
     2 C         -0.487221   -0.971538   0.149305 C.3        1 UNL1     0.1342
     3 C         -1.925901   -0.897973   -0.384786 C.3        1 UNL1     0.1174
     4 C         -2.84014   -1.964256   0.223759 C.3        1 UNL1     0.1456
     5 C         -2.693185   -2.064779   1.753027 C.3        1 UNL1     0.2326
     6 O         -1.335085   -2.333135   2.094231 O.3        1 UNL1     -0.3076
     7 O         -3.240922   -0.935294   2.456993 O.3        1 UNL1     -0.4605
     8 C         -3.769629   -1.19883   3.707811 C.ar        1 UNL1     0.1310
     9 C         -4.612411   -2.270428   4.021974 C.ar        1 UNL1     0.0226
     10 C         -5.083387   -2.462516   5.326269 C.ar        1 UNL1     0.1343
     11 C         -4.703415   -1.60041   6.354003 C.ar        1 UNL1     0.1007
     12 C         -3.895338   -0.50317   6.04439 C.ar        1 UNL1     0.1389
     13 C         -3.424048   -0.308738   4.732325 C.ar        1 UNL1     0.0229
     14 C         -5.103457   -1.804477   7.765554 C.2        1 UNL1     0.1740
     15 C         -4.425947   -0.916223   8.76732 C.3        1 UNL1     0.0520
     16 C         -4.320521   0.483141   8.176878 C.3        1 UNL1     0.1322
     17 O         -3.549155   0.467574   6.955476 O.3        1 UNL1     -0.4828
     18 C         -5.663516   1.209514   8.069781 C.ar        1 UNL1     -0.0067
     19 C         -5.759931   2.374239   7.280899 C.ar        1 UNL1     -0.0516
     20 C         -6.960843   3.089161   7.199289 C.ar        1 UNL1     -0.0198
     21 C         -8.067932   2.65478   7.906038 C.ar        1 UNL1     0.1169
     22 C         -8.013496   1.492833   8.664822 C.ar        1 UNL1     -0.0198
     23 C         -6.817903   0.767497   8.731904 C.ar        1 UNL1     -0.0516
     24 O         -9.209408   3.397749   7.832339 O.3        1 UNL1     -0.5068
     25 O         -5.87516   -2.688317   8.128577 O.2        1 UNL1     -0.2917
     26 O         -5.903172   -3.526436   5.566292 O.3        1 UNL1     -0.5058
     27 O         -0.23795   -0.302652   2.530161 O.3        1 UNL1     -0.3648
     28 O         0.220564   -1.931397   -0.657179 O.3        1 UNL1     -0.3841
     29 O         -2.450479   0.424257   -0.248197 O.3        1 UNL1     -0.3863
     30 O         -2.523909   -3.247611   -0.358212 O.3        1 UNL1     -0.3829
     31 H         0.57768   -1.939292   1.733828 H        1 UNL1     0.0937
     32 H         0.0   0.0   0.0 H        1 UNL1     0.0671
     33 H         -1.892117   -1.088145   -1.466642 H        1 UNL1     0.0649
     34 H         -3.8848   -1.747822   -0.025727 H        1 UNL1     0.0683
     35 H         -3.270945   -2.95971   2.016028 H        1 UNL1     0.1085
     36 H         -4.898836   -3.007262   3.279575 H        1 UNL1     0.0691
     37 H         -2.797143   0.55389   4.517023 H        1 UNL1     0.0691
     38 H         -3.434394   -1.33689   8.965784 H        1 UNL1     0.0385
     39 H         -4.996412   -0.929223   9.702296 H        1 UNL1     0.0385
     40 H         -3.719946   1.083897   8.873242 H        1 UNL1     0.0789
     41 H         -4.902655   2.740931   6.723885 H        1 UNL1     0.0623
     42 H         -7.019215   3.992435   6.597043 H        1 UNL1     0.0654
     43 H         -8.878746   1.135394   9.210249 H        1 UNL1     0.0654
     44 H         -6.814209   -0.141438   9.325763 H        1 UNL1     0.0623
     45 H         -9.040338   4.261253   8.242817 H        1 UNL1     0.2921
     46 H         -5.530207   -4.067694   6.279979 H        1 UNL1     0.2922
     47 H         0.506809   0.256018   2.267327 H        1 UNL1     0.2126
     48 H         1.165761   -1.848077   -0.426108 H        1 UNL1     0.2101
     49 H         -2.001641   1.022846   -0.866282 H        1 UNL1     0.2100
     50 H         -2.781226   -3.22182   -1.303111 H        1 UNL1     0.2102
@<TRIPOS>BOND
     1     1     2    1
     2     1     6    1
     3     2     3    1
     4     3     4    1
     5     3    29    1
     6     3    33    1
     7     4     5    1
     8     5     6    1
     9     5     7    1
    10     5    35    1
    11     7     8    1
    12     8     9   ar
    13     8    13   ar
    14     9    10   ar
    15     9    36    1
    16    10    11   ar
    17    10    26    1
    18    11    12   ar
    19    11    14    1
    20    12    13   ar
    21    12    17    1
    22    13    37    1
    23    14    15    1
    24    14    25    2
    25    15    16    1
    26    15    38    1
    27    15    39    1
    28    16    17    1
    29    16    18    1
    30    16    40    1
    31    18    19   ar
    32    18    23   ar
    33    19    20   ar
    34    19    41    1
    35    20    21   ar
    36    20    42    1
    37    21    22   ar
    38    21    24    1
    39    22    23   ar
    40    22    43    1
    41    23    44    1
    42    24    45    1
    43    26    46    1
    44    27    47    1
    45    28    48    1
    46    29    49    1
    47    30    50    1
    48     1    31    1
    49     1    27    1
    50     2    32    1
    51     2    28    1
    52     4    34    1
    53     4    30    1
