@<TRIPOS>MOLECULE
*****
 50 53 0 0 0
SMALL
GASTEIGER

@<TRIPOS>ATOM
     1 C         0.912891   -0.014394   1.984245 C.3        1 UNL1     0.1889
     2 C         -0.325161   -0.000572   1.047775 C.3        1 UNL1     0.1342
     3 C         -1.287539   1.175405   1.274434 C.3        1 UNL1     0.1174
     4 C         -1.384049   1.588326   2.745249 C.3        1 UNL1     0.1456
     5 C         -0.003657   1.707999   3.416488 C.3        1 UNL1     0.2326
     6 O         0.701746   0.474363   3.300652 O.3        1 UNL1     -0.3076
     7 O         0.758757   2.840677   2.96142 O.3        1 UNL1     -0.4605
     8 C         1.604679   3.415702   3.892704 C.ar        1 UNL1     0.1310
     9 C         1.267319   3.717416   5.216508 C.ar        1 UNL1     0.0226
     10 C         2.202323   4.285033   6.090283 C.ar        1 UNL1     0.1343
     11 C         3.505703   4.542976   5.667785 C.ar        1 UNL1     0.1007
     12 C         3.842624   4.284008   4.336543 C.ar        1 UNL1     0.1389
     13 C         2.901538   3.715724   3.457429 C.ar        1 UNL1     0.0229
     14 C         4.557153   5.063709   6.571912 C.2        1 UNL1     0.1740
     15 C         5.949546   5.070128   6.012672 C.3        1 UNL1     0.0520
     16 C         5.881593   5.50697   4.555788 C.3        1 UNL1     0.1322
     17 O         5.063186   4.598981   3.785829 O.3        1 UNL1     -0.4828
     18 C         5.533652   6.986071   4.371607 C.ar        1 UNL1     -0.0067
     19 C         5.382057   7.504891   3.069279 C.ar        1 UNL1     -0.0516
     20 C         5.110765   8.862935   2.864149 C.ar        1 UNL1     -0.0198
     21 C         4.9963   9.711987   3.950351 C.ar        1 UNL1     0.1169
     22 C         5.107223   9.224433   5.246046 C.ar        1 UNL1     -0.0198
     23 C         5.360205   7.862958   5.452061 C.ar        1 UNL1     -0.0516
     24 O         4.769316   11.035347   3.710355 O.3        1 UNL1     -0.5068
     25 O         4.344286   5.398728   7.734209 O.2        1 UNL1     -0.2917
     26 O         1.809521   4.55628   7.368452 O.3        1 UNL1     -0.5058
     27 O         2.073379   0.550855   1.395561 O.3        1 UNL1     -0.3648
     28 O         -1.072115   -1.212669   1.261281 O.3        1 UNL1     -0.3841
     29 O         -0.964126   2.268596   0.412767 O.3        1 UNL1     -0.3863
     30 O         -2.165324   0.607918   3.462256 O.3        1 UNL1     -0.3829
     31 H         1.17505   -1.066474   2.140705 H        1 UNL1     0.0937
     32 H         0.0   0.0   0.0 H        1 UNL1     0.0671
     33 H         -2.291942   0.850419   0.969019 H        1 UNL1     0.0649
     34 H         -1.912195   2.54438   2.831405 H        1 UNL1     0.0683
     35 H         -0.237469   1.843079   4.479955 H        1 UNL1     0.1085
     36 H         0.287451   3.489303   5.621406 H        1 UNL1     0.0691
     37 H         3.188426   3.524724   2.425583 H        1 UNL1     0.0691
     38 H         6.347022   4.053489   6.102034 H        1 UNL1     0.0385
     39 H         6.575578   5.736403   6.615945 H        1 UNL1     0.0385
     40 H         6.889896   5.391151   4.135752 H        1 UNL1     0.0789
     41 H         5.476334   6.860823   2.199832 H        1 UNL1     0.0623
     42 H         5.007828   9.253212   1.854644 H        1 UNL1     0.0654
     43 H         5.004428   9.877723   6.104275 H        1 UNL1     0.0654
     44 H         5.430344   7.514483   6.47797 H        1 UNL1     0.0623
     45 H         5.525087   11.391353   3.215595 H        1 UNL1     0.2921
     46 H         2.411433   4.119328   7.991499 H        1 UNL1     0.2922
     47 H         2.267835   0.115403   0.553879 H        1 UNL1     0.2126
     48 H         -0.494493   -1.949681   0.983974 H        1 UNL1     0.2101
     49 H         -1.178231   2.039446   -0.505624 H        1 UNL1     0.2100
     50 H         -3.082896   0.645516   3.121141 H        1 UNL1     0.2102
@<TRIPOS>BOND
     1     1     2    1
     2     1     6    1
     3     2     3    1
     4     3     4    1
     5     3    29    1
     6     3    33    1
     7     4     5    1
     8     5     6    1
     9     5     7    1
    10     5    35    1
    11     7     8    1
    12     8     9   ar
    13     8    13   ar
    14     9    10   ar
    15     9    36    1
    16    10    11   ar
    17    10    26    1
    18    11    12   ar
    19    11    14    1
    20    12    13   ar
    21    12    17    1
    22    13    37    1
    23    14    15    1
    24    14    25    2
    25    15    16    1
    26    15    38    1
    27    15    39    1
    28    16    17    1
    29    16    18    1
    30    16    40    1
    31    18    19   ar
    32    18    23   ar
    33    19    20   ar
    34    19    41    1
    35    20    21   ar
    36    20    42    1
    37    21    22   ar
    38    21    24    1
    39    22    23   ar
    40    22    43    1
    41    23    44    1
    42    24    45    1
    43    26    46    1
    44    27    47    1
    45    28    48    1
    46    29    49    1
    47    30    50    1
    48     1    31    1
    49     1    27    1
    50     2    32    1
    51     2    28    1
    52     4    34    1
    53     4    30    1
