@<TRIPOS>MOLECULE
*****
 50 53 0 0 0
SMALL
GASTEIGER

@<TRIPOS>ATOM
     1 C         -0.95478   1.964064   -0.040659 C.3        1 UNL1     0.1889
     2 C         -0.223395   0.783606   -0.734587 C.3        1 UNL1     0.1342
     3 C         1.072392   1.171495   -1.463246 C.3        1 UNL1     0.1174
     4 C         1.002473   2.562398   -2.098554 C.3        1 UNL1     0.1456
     5 C         0.425219   3.620472   -1.140628 C.3        1 UNL1     0.2326
     6 O         -0.869459   3.220156   -0.697429 O.3        1 UNL1     -0.3076
     7 O         1.313023   3.960747   -0.060194 O.3        1 UNL1     -0.4605
     8 C         2.450857   3.182897   0.057327 C.ar        1 UNL1     0.1310
     9 C         3.424504   3.316492   1.05305 C.ar        1 UNL1     0.0226
     10 C         4.535988   2.466456   1.097138 C.ar        1 UNL1     0.1343
     11 C         4.688696   1.445897   0.159598 C.ar        1 UNL1     0.1007
     12 C         3.744281   1.328679   -0.863692 C.ar        1 UNL1     0.1389
     13 C         2.628158   2.185193   -0.909354 C.ar        1 UNL1     0.0229
     14 C         5.799165   0.466814   0.208687 C.2        1 UNL1     0.1740
     15 C         5.685784   -0.691559   -0.738343 C.3        1 UNL1     0.0520
     16 C         5.153283   -0.176214   -2.068312 C.3        1 UNL1     0.1322
     17 O         3.852965   0.43026   -1.899693 O.3        1 UNL1     -0.4828
     18 C         6.157102   0.680505   -2.843621 C.ar        1 UNL1     -0.0067
     19 C         5.692714   1.547643   -3.853883 C.ar        1 UNL1     -0.0516
     20 C         6.588035   2.309687   -4.613917 C.ar        1 UNL1     -0.0198
     21 C         7.947559   2.208249   -4.378901 C.ar        1 UNL1     0.1169
     22 C         8.433107   1.388314   -3.36856 C.ar        1 UNL1     -0.0198
     23 C         7.536764   0.640087   -2.596043 C.ar        1 UNL1     -0.0516
     24 O         8.791543   2.937095   -5.164316 O.3        1 UNL1     -0.5068
     25 O         6.722164   0.531272   1.016402 O.2        1 UNL1     -0.2917
     26 O         5.44992   2.650234   2.0934 O.3        1 UNL1     -0.5058
     27 O         -0.66195   2.075577   1.343032 O.3        1 UNL1     -0.3648
     28 O         -1.109851   0.20982   -1.713194 O.3        1 UNL1     -0.3841
     29 O         2.203984   1.011139   -0.605389 O.3        1 UNL1     -0.3863
     30 O         0.172454   2.502895   -3.2789 O.3        1 UNL1     -0.3829
     31 H         -2.02471   1.730926   -0.07192 H        1 UNL1     0.0937
     32 H         0.0   0.0   0.0 H        1 UNL1     0.0671
     33 H         1.22365   0.455046   -2.282722 H        1 UNL1     0.0649
     34 H         2.000681   2.875466   -2.424084 H        1 UNL1     0.0683
     35 H         0.285794   4.504277   -1.775709 H        1 UNL1     0.1085
     36 H         3.334638   4.053898   1.843162 H        1 UNL1     0.0691
     37 H         1.907775   2.073994   -1.716928 H        1 UNL1     0.0691
     38 H         4.998036   -1.417904   -0.292302 H        1 UNL1     0.0385
     39 H         6.666645   -1.168013   -0.841703 H        1 UNL1     0.0385
     40 H         4.967177   -1.052513   -2.70391 H        1 UNL1     0.0789
     41 H         4.630963   1.63827   -4.063936 H        1 UNL1     0.0623
     42 H         6.218398   2.965755   -5.398107 H        1 UNL1     0.0654
     43 H         9.494794   1.312752   -3.166024 H        1 UNL1     0.0654
     44 H         7.950261   0.017995   -1.808092 H        1 UNL1     0.0623
     45 H         9.501391   3.291893   -4.604895 H        1 UNL1     0.2921
     46 H         5.821429   3.544362   2.030716 H        1 UNL1     0.2922
     47 H         -0.751038   2.994784   1.631097 H        1 UNL1     0.2126
     48 H         -1.442992   -0.625752   -1.332971 H        1 UNL1     0.2101
     49 H         2.191792   1.690577   0.087438 H        1 UNL1     0.2100
     50 H         0.345631   1.648874   -3.726528 H        1 UNL1     0.2102
@<TRIPOS>BOND
     1     1     2    1
     2     1     6    1
     3     2     3    1
     4     3     4    1
     5     3    29    1
     6     3    33    1
     7     4     5    1
     8     5     6    1
     9     5     7    1
    10     5    35    1
    11     7     8    1
    12     8     9   ar
    13     8    13   ar
    14     9    10   ar
    15     9    36    1
    16    10    11   ar
    17    10    26    1
    18    11    12   ar
    19    11    14    1
    20    12    13   ar
    21    12    17    1
    22    13    37    1
    23    14    15    1
    24    14    25    2
    25    15    16    1
    26    15    38    1
    27    15    39    1
    28    16    17    1
    29    16    18    1
    30    16    40    1
    31    18    19   ar
    32    18    23   ar
    33    19    20   ar
    34    19    41    1
    35    20    21   ar
    36    20    42    1
    37    21    22   ar
    38    21    24    1
    39    22    23   ar
    40    22    43    1
    41    23    44    1
    42    24    45    1
    43    26    46    1
    44    27    47    1
    45    28    48    1
    46    29    49    1
    47    30    50    1
    48     1    31    1
    49     1    27    1
    50     2    32    1
    51     2    28    1
    52     4    34    1
    53     4    30    1
