@<TRIPOS>MOLECULE
*****
 50 53 0 0 0
SMALL
GASTEIGER

@<TRIPOS>ATOM
     1 C         -0.331246   -1.381528   1.659055 C.3        1 UNL1     0.1889
     2 C         -0.467569   -0.978441   0.166112 C.3        1 UNL1     0.1342
     3 C         -1.91114   -0.939493   -0.35834 C.3        1 UNL1     0.1174
     4 C         -2.800578   -2.014417   0.271387 C.3        1 UNL1     0.1456
     5 C         -2.640895   -2.091074   1.800762 C.3        1 UNL1     0.2326
     6 O         -1.275548   -2.328942   2.135598 O.3        1 UNL1     -0.3076
     7 O         -3.205027   -0.962578   2.493274 O.3        1 UNL1     -0.4605
     8 C         -3.719738   -1.218832   3.751421 C.ar        1 UNL1     0.1310
     9 C         -4.545373   -2.29794   4.084817 C.ar        1 UNL1     0.0226
     10 C         -5.00288   -2.481372   5.395138 C.ar        1 UNL1     0.1343
     11 C         -4.626038   -1.602558   6.40979 C.ar        1 UNL1     0.1007
     12 C         -3.835411   -0.498224   6.080947 C.ar        1 UNL1     0.1389
     13 C         -3.377687   -0.312533   4.762828 C.ar        1 UNL1     0.0229
     14 C         -5.011568   -1.795792   7.826893 C.2        1 UNL1     0.1740
     15 C         -4.337795   -0.887152   8.812769 C.3        1 UNL1     0.0520
     16 C         -4.25613   0.50665   8.20564 C.3        1 UNL1     0.1322
     17 O         -3.494787   0.487425   6.978018 O.3        1 UNL1     -0.4828
     18 C         -5.609629   1.213723   8.101674 C.ar        1 UNL1     -0.0067
     19 C         -5.872089   2.330913   8.920951 C.ar        1 UNL1     -0.0516
     20 C         -7.116373   2.97156   8.885013 C.ar        1 UNL1     -0.0198
     21 C         -8.106742   2.501206   8.041352 C.ar        1 UNL1     0.1169
     22 C         -7.867174   1.423847   7.198296 C.ar        1 UNL1     -0.0198
     23 C         -6.616809   0.794447   7.220658 C.ar        1 UNL1     -0.0516
     24 O         -9.31842   3.127184   8.061122 O.3        1 UNL1     -0.5068
     25 O         -5.768257   -2.685662   8.206416 O.2        1 UNL1     -0.2917
     26 O         -5.80624   -3.553345   5.65412 O.3        1 UNL1     -0.5058
     27 O         -0.214197   -0.272238   2.535732 O.3        1 UNL1     -0.3648
     28 O         0.252622   -1.935739   -0.632394 O.3        1 UNL1     -0.3841
     29 O         -2.459809   0.374322   -0.235935 O.3        1 UNL1     -0.3863
     30 O         -2.464111   -3.299444   -0.295345 O.3        1 UNL1     -0.3829
     31 H         0.62677   -1.903949   1.755808 H        1 UNL1     0.0937
     32 H         0.0   0.0   0.0 H        1 UNL1     0.0671
     33 H         -1.881415   -1.143869   -1.437723 H        1 UNL1     0.0649
     34 H         -3.850911   -1.821259   0.026661 H        1 UNL1     0.0683
     35 H         -3.199636   -2.993079   2.080177 H        1 UNL1     0.1085
     36 H         -4.827998   -3.046985   3.353261 H        1 UNL1     0.0691
     37 H         -2.764266   0.555883   4.532475 H        1 UNL1     0.0691
     38 H         -3.339052   -1.292222   9.0076 H        1 UNL1     0.0385
     39 H         -4.900254   -0.89708   9.75262 H        1 UNL1     0.0385
     40 H         -3.657943   1.123313   8.890052 H        1 UNL1     0.0789
     41 H         -5.114367   2.713759   9.598401 H        1 UNL1     0.0623
     42 H         -7.310552   3.824755   9.530276 H        1 UNL1     0.0654
     43 H         -8.630644   1.056699   6.522851 H        1 UNL1     0.0654
     44 H         -6.460884   -0.037729   6.54094 H        1 UNL1     0.0623
     45 H         -9.362629   3.733774   7.304279 H        1 UNL1     0.2921
     46 H         -5.579269   -3.925824   6.520812 H        1 UNL1     0.2922
     47 H         0.519214   0.295668   2.26105 H        1 UNL1     0.2126
     48 H         1.20273   -1.763067   -0.486754 H        1 UNL1     0.2101
     49 H         -3.00348   0.431524   0.565903 H        1 UNL1     0.2100
     50 H         -2.728568   -3.291543   -1.238591 H        1 UNL1     0.2102
@<TRIPOS>BOND
     1     1     2    1
     2     1     6    1
     3     2     3    1
     4     3     4    1
     5     3    29    1
     6     3    33    1
     7     4     5    1
     8     5     6    1
     9     5     7    1
    10     5    35    1
    11     7     8    1
    12     8     9   ar
    13     8    13   ar
    14     9    10   ar
    15     9    36    1
    16    10    11   ar
    17    10    26    1
    18    11    12   ar
    19    11    14    1
    20    12    13   ar
    21    12    17    1
    22    13    37    1
    23    14    15    1
    24    14    25    2
    25    15    16    1
    26    15    38    1
    27    15    39    1
    28    16    17    1
    29    16    18    1
    30    16    40    1
    31    18    19   ar
    32    18    23   ar
    33    19    20   ar
    34    19    41    1
    35    20    21   ar
    36    20    42    1
    37    21    22   ar
    38    21    24    1
    39    22    23   ar
    40    22    43    1
    41    23    44    1
    42    24    45    1
    43    26    46    1
    44    27    47    1
    45    28    48    1
    46    29    49    1
    47    30    50    1
    48     1    31    1
    49     1    27    1
    50     2    32    1
    51     2    28    1
    52     4    34    1
    53     4    30    1
