@<TRIPOS>MOLECULE
*****
 50 53 0 0 0
SMALL
GASTEIGER

@<TRIPOS>ATOM
     1 C         -0.409166   -1.361822   1.657959 C.3        1 UNL1     0.1889
     2 C         -0.502506   -0.961857   0.160877 C.3        1 UNL1     0.1342
     3 C         -1.93331   -0.87847   -0.392577 C.3        1 UNL1     0.1174
     4 C         -2.869755   -1.920728   0.22377 C.3        1 UNL1     0.1456
     5 C         -2.743131   -1.995023   1.756353 C.3        1 UNL1     0.2326
     6 O         -1.39322   -2.275606   2.119511 O.3        1 UNL1     -0.3076
     7 O         -3.283755   -0.84535   2.432592 O.3        1 UNL1     -0.4605
     8 C         -3.8213   -1.076525   3.68604 C.ar        1 UNL1     0.1310
     9 C         -4.684037   -2.127108   4.016585 C.ar        1 UNL1     0.0226
     10 C         -5.162774   -2.286899   5.322411 C.ar        1 UNL1     0.1343
     11 C         -4.771047   -1.412959   6.335633 C.ar        1 UNL1     0.1007
     12 C         -3.942569   -0.336045   6.009039 C.ar        1 UNL1     0.1389
     13 C         -3.46345   -0.174059   4.695404 C.ar        1 UNL1     0.0229
     14 C         -5.179438   -1.584014   7.749179 C.2        1 UNL1     0.1740
     15 C         -4.489669   -0.689674   8.737067 C.3        1 UNL1     0.0520
     16 C         -4.35741   0.696551   8.121562 C.3        1 UNL1     0.1322
     17 O         -3.582301   0.644959   6.903525 O.3        1 UNL1     -0.4828
     18 C         -5.686925   1.444483   7.996222 C.ar        1 UNL1     -0.0067
     19 C         -6.023335   2.058623   6.772346 C.ar        1 UNL1     -0.0516
     20 C         -7.20923   2.790441   6.637962 C.ar        1 UNL1     -0.0198
     21 C         -8.061601   2.921395   7.719692 C.ar        1 UNL1     0.1169
     22 C         -7.774049   2.3002   8.928109 C.ar        1 UNL1     -0.0198
     23 C         -6.597223   1.552918   9.057352 C.ar        1 UNL1     -0.0516
     24 O         -9.188739   3.673178   7.562267 O.3        1 UNL1     -0.5068
     25 O         -5.96794   -2.447263   8.125411 O.2        1 UNL1     -0.2917
     26 O         -6.00213   -3.331573   5.578774 O.3        1 UNL1     -0.5058
     27 O         -0.273402   -0.252636   2.532066 O.3        1 UNL1     -0.3648
     28 O         0.201767   -1.946031   -0.618935 O.3        1 UNL1     -0.3841
     29 O         -2.441081   0.453113   -0.286806 O.3        1 UNL1     -0.3863
     30 O         -2.564248   -3.21881   -0.330612 O.3        1 UNL1     -0.3829
     31 H         0.529151   -1.914701   1.776132 H        1 UNL1     0.0937
     32 H         0.0   0.0   0.0 H        1 UNL1     0.0671
     33 H         -1.888803   -1.089013   -1.470265 H        1 UNL1     0.0649
     34 H         -3.908137   -1.694653   -0.042789 H        1 UNL1     0.0683
     35 H         -3.336499   -2.876957   2.028355 H        1 UNL1     0.1085
     36 H         -4.980977   -2.872243   3.286707 H        1 UNL1     0.0691
     37 H         -2.820601   0.673254   4.466716 H        1 UNL1     0.0691
     38 H         -3.506421   -1.124107   8.946868 H        1 UNL1     0.0385
     39 H         -5.063445   -0.675442   9.669997 H        1 UNL1     0.0385
     40 H         -3.748631   1.29925   8.809066 H        1 UNL1     0.0789
     41 H         -5.366574   1.978279   5.911032 H        1 UNL1     0.0623
     42 H         -7.451683   3.269301   5.692488 H        1 UNL1     0.0654
     43 H         -8.441907   2.383727   9.777167 H        1 UNL1     0.0654
     44 H         -6.40947   1.072359   10.012683 H        1 UNL1     0.0623
     45 H         -8.923865   4.578768   7.333214 H        1 UNL1     0.2921
     46 H         -5.629598   -3.87947   6.287605 H        1 UNL1     0.2922
     47 H         0.494507   0.279476   2.281003 H        1 UNL1     0.2126
     48 H         1.132027   -1.924367   -0.322492 H        1 UNL1     0.2101
     49 H         -1.970394   1.035777   -0.903856 H        1 UNL1     0.2100
     50 H         -2.783047   -3.198028   -1.285288 H        1 UNL1     0.2102
@<TRIPOS>BOND
     1     1     2    1
     2     1     6    1
     3     2     3    1
     4     3     4    1
     5     3    29    1
     6     3    33    1
     7     4     5    1
     8     5     6    1
     9     5     7    1
    10     5    35    1
    11     7     8    1
    12     8     9   ar
    13     8    13   ar
    14     9    10   ar
    15     9    36    1
    16    10    11   ar
    17    10    26    1
    18    11    12   ar
    19    11    14    1
    20    12    13   ar
    21    12    17    1
    22    13    37    1
    23    14    15    1
    24    14    25    2
    25    15    16    1
    26    15    38    1
    27    15    39    1
    28    16    17    1
    29    16    18    1
    30    16    40    1
    31    18    19   ar
    32    18    23   ar
    33    19    20   ar
    34    19    41    1
    35    20    21   ar
    36    20    42    1
    37    21    22   ar
    38    21    24    1
    39    22    23   ar
    40    22    43    1
    41    23    44    1
    42    24    45    1
    43    26    46    1
    44    27    47    1
    45    28    48    1
    46    29    49    1
    47    30    50    1
    48     1    31    1
    49     1    27    1
    50     2    32    1
    51     2    28    1
    52     4    34    1
    53     4    30    1
