@<TRIPOS>MOLECULE
*****
 50 53 0 0 0
SMALL
GASTEIGER

@<TRIPOS>ATOM
     1 C         1.556148   1.416699   -0.584955 C.3        1 UNL1     0.1889
     2 C         1.048822   0.207489   0.245931 C.3        1 UNL1     0.1342
     3 C         1.183427   0.373227   1.767403 C.3        1 UNL1     0.1174
     4 C         2.431978   1.161813   2.170354 C.3        1 UNL1     0.1456
     5 C         2.617588   2.441003   1.333941 C.3        1 UNL1     0.2326
     6 O         2.674031   2.111544   -0.05211 O.3        1 UNL1     -0.3076
     7 O         1.653008   3.466415   1.633004 O.3        1 UNL1     -0.4605
     8 C         0.496481   3.450636   0.87424 C.ar        1 UNL1     0.1310
     9 C         -0.078259   4.562867   0.249807 C.ar        1 UNL1     0.0226
     10 C         -1.245306   4.441432   -0.51384 C.ar        1 UNL1     0.1343
     11 C         -1.853261   3.199371   -0.69137 C.ar        1 UNL1     0.1007
     12 C         -1.311759   2.088482   -0.039078 C.ar        1 UNL1     0.1389
     13 C         -0.139788   2.21131   0.730875 C.ar        1 UNL1     0.0229
     14 C         -3.039375   2.999551   -1.555868 C.2        1 UNL1     0.1740
     15 C         -3.424699   1.571733   -1.809662 C.3        1 UNL1     0.0520
     16 C         -3.258668   0.79024   -0.513645 C.3        1 UNL1     0.1322
     17 O         -1.889072   0.840016   -0.056699 O.3        1 UNL1     -0.4828
     18 C         -4.297008   1.141067   0.554762 C.ar        1 UNL1     -0.0067
     19 C         -4.396664   0.342173   1.712367 C.ar        1 UNL1     -0.0516
     20 C         -5.366683   0.606893   2.686507 C.ar        1 UNL1     -0.0198
     21 C         -6.245721   1.660712   2.511624 C.ar        1 UNL1     0.1169
     22 C         -6.150907   2.485707   1.398416 C.ar        1 UNL1     -0.0198
     23 C         -5.169074   2.232435   0.43306 C.ar        1 UNL1     -0.0516
     24 O         -7.201441   1.864903   3.4631 O.3        1 UNL1     -0.5068
     25 O         -3.63741   3.920159   -2.106614 O.2        1 UNL1     -0.2917
     26 O         -1.755677   5.565056   -1.095713 O.3        1 UNL1     -0.5058
     27 O         0.523306   2.307498   -0.975466 O.3        1 UNL1     -0.3648
     28 O         1.811864   -0.954834   -0.127537 O.3        1 UNL1     -0.3841
     29 O         -0.016036   0.912176   2.326827 O.3        1 UNL1     -0.3863
     30 O         3.596258   0.324114   2.001821 O.3        1 UNL1     -0.3829
     31 H         1.933622   1.010696   -1.529812 H        1 UNL1     0.0937
     32 H         -0.0   0.0   0.0 H        1 UNL1     0.0671
     33 H         1.285294   -0.629165   2.206213 H        1 UNL1     0.0649
     34 H         2.379674   1.428176   3.231823 H        1 UNL1     0.0683
     35 H         3.614946   2.799953   1.617332 H        1 UNL1     0.1085
     36 H         0.377288   5.545582   0.303354 H        1 UNL1     0.0691
     37 H         0.261125   1.331435   1.229454 H        1 UNL1     0.0691
     38 H         -2.763363   1.184275   -2.59199 H        1 UNL1     0.0385
     39 H         -4.453504   1.538734   -2.184161 H        1 UNL1     0.0385
     40 H         -3.431007   -0.268566   -0.749757 H        1 UNL1     0.0789
     41 H         -3.724366   -0.496424   1.868644 H        1 UNL1     0.0623
     42 H         -5.441138   -0.023657   3.569046 H        1 UNL1     0.0654
     43 H         -6.824491   3.322796   1.258858 H        1 UNL1     0.0654
     44 H         -5.116918   2.903631   -0.418774 H        1 UNL1     0.0623
     45 H         -7.976427   2.26673   3.038072 H        1 UNL1     0.2921
     46 H         -2.547324   5.848897   -0.611831 H        1 UNL1     0.2922
     47 H         0.415453   2.29428   -1.936743 H        1 UNL1     0.2126
     48 H         2.12384   -1.36328   0.70287 H        1 UNL1     0.2101
     49 H         -0.477654   1.448881   1.663012 H        1 UNL1     0.2100
     50 H         3.297521   -0.540204   1.650506 H        1 UNL1     0.2102
@<TRIPOS>BOND
     1     1     2    1
     2     1     6    1
     3     2     3    1
     4     3     4    1
     5     3    29    1
     6     3    33    1
     7     4     5    1
     8     5     6    1
     9     5     7    1
    10     5    35    1
    11     7     8    1
    12     8     9   ar
    13     8    13   ar
    14     9    10   ar
    15     9    36    1
    16    10    11   ar
    17    10    26    1
    18    11    12   ar
    19    11    14    1
    20    12    13   ar
    21    12    17    1
    22    13    37    1
    23    14    15    1
    24    14    25    2
    25    15    16    1
    26    15    38    1
    27    15    39    1
    28    16    17    1
    29    16    18    1
    30    16    40    1
    31    18    19   ar
    32    18    23   ar
    33    19    20   ar
    34    19    41    1
    35    20    21   ar
    36    20    42    1
    37    21    22   ar
    38    21    24    1
    39    22    23   ar
    40    22    43    1
    41    23    44    1
    42    24    45    1
    43    26    46    1
    44    27    47    1
    45    28    48    1
    46    29    49    1
    47    30    50    1
    48     1    31    1
    49     1    27    1
    50     2    32    1
    51     2    28    1
    52     4    34    1
    53     4    30    1
