@<TRIPOS>MOLECULE
*****
 50 53 0 0 0
SMALL
GASTEIGER

@<TRIPOS>ATOM
     1 C         -1.687508   -0.403477   1.326773 C.3        1 UNL1     0.1889
     2 C         -0.186139   -0.517996   0.948996 C.3        1 UNL1     0.1342
     3 C         0.341212   -1.957361   0.846064 C.3        1 UNL1     0.1174
     4 C         -0.309845   -2.901871   1.859544 C.3        1 UNL1     0.1456
     5 C         -1.840744   -2.747026   1.91185 C.3        1 UNL1     0.2326
     6 O         -2.182626   -1.396069   2.213348 O.3        1 UNL1     -0.3076
     7 O         -2.508283   -3.251858   0.741014 O.3        1 UNL1     -0.4605
     8 C         -3.141926   -2.30968   -0.049127 C.ar        1 UNL1     0.1310
     9 C         -3.2336   -2.351813   -1.44452 C.ar        1 UNL1     0.0226
     10 C         -3.913491   -1.355779   -2.155553 C.ar        1 UNL1     0.1343
     11 C         -4.539207   -0.305052   -1.486007 C.ar        1 UNL1     0.1007
     12 C         -4.419619   -0.230096   -0.095732 C.ar        1 UNL1     0.1389
     13 C         -3.733687   -1.230304   0.618769 C.ar        1 UNL1     0.0229
     14 C         -5.34165   0.72827   -2.180619 C.2        1 UNL1     0.1740
     15 C         -6.124381   1.64904   -1.291202 C.3        1 UNL1     0.0520
     16 C         -5.262612   2.003822   -0.087274 C.3        1 UNL1     0.1322
     17 O         -4.903474   0.816908   0.65389 O.3        1 UNL1     -0.4828
     18 C         -4.085562   2.923345   -0.42157 C.ar        1 UNL1     -0.0067
     19 C         -4.313579   4.095223   -1.171852 C.ar        1 UNL1     -0.0516
     20 C         -3.252659   4.93329   -1.535248 C.ar        1 UNL1     -0.0198
     21 C         -1.961143   4.607389   -1.161615 C.ar        1 UNL1     0.1169
     22 C         -1.708889   3.477796   -0.394003 C.ar        1 UNL1     -0.0198
     23 C         -2.771856   2.649345   -0.014759 C.ar        1 UNL1     -0.0516
     24 O         -0.94898   5.427397   -1.565982 O.3        1 UNL1     -0.5068
     25 O         -5.441498   0.798407   -3.402747 O.2        1 UNL1     -0.2917
     26 O         -3.965378   -1.454795   -3.515365 O.3        1 UNL1     -0.5058
     27 O         -2.540613   -0.229132   0.206682 O.3        1 UNL1     -0.3648
     28 O         0.590768   0.151649   1.959291 O.3        1 UNL1     -0.3841
     29 O         0.247562   -2.436861   -0.496859 O.3        1 UNL1     -0.3863
     30 O         0.228964   -2.632604   3.172126 O.3        1 UNL1     -0.3829
     31 H         -1.796786   0.525968   1.896218 H        1 UNL1     0.0937
     32 H         0.0   0.0   0.0 H        1 UNL1     0.0671
     33 H         1.415966   -1.937887   1.074636 H        1 UNL1     0.0649
     34 H         -0.05948   -3.94061   1.61718 H        1 UNL1     0.0683
     35 H         -2.138399   -3.352133   2.77737 H        1 UNL1     0.1085
     36 H         -2.81653   -3.171753   -2.018865 H        1 UNL1     0.0691
     37 H         -3.653879   -1.148265   1.700616 H        1 UNL1     0.0691
     38 H         -7.032967   1.120012   -0.984399 H        1 UNL1     0.0385
     39 H         -6.420966   2.534649   -1.863489 H        1 UNL1     0.0385
     40 H         -5.893356   2.578868   0.604105 H        1 UNL1     0.0789
     41 H         -5.317038   4.368273   -1.485162 H        1 UNL1     0.0623
     42 H         -3.43991   5.827853   -2.124066 H        1 UNL1     0.0654
     43 H         -0.703163   3.221241   -0.08319 H        1 UNL1     0.0654
     44 H         -2.539602   1.780746   0.593878 H        1 UNL1     0.0623
     45 H         -0.14994   5.198796   -1.063993 H        1 UNL1     0.2921
     46 H         -4.373889   -2.299343   -3.762889 H        1 UNL1     0.2922
     47 H         -2.219367   -0.749306   -0.543039 H        1 UNL1     0.2126
     48 H         0.644901   1.090028   1.694248 H        1 UNL1     0.2101
     49 H         0.656469   -3.314465   -0.563193 H        1 UNL1     0.2100
     50 H         1.182981   -2.434009   3.071504 H        1 UNL1     0.2102
@<TRIPOS>BOND
     1     1     2    1
     2     1     6    1
     3     2     3    1
     4     3     4    1
     5     3    29    1
     6     3    33    1
     7     4     5    1
     8     5     6    1
     9     5     7    1
    10     5    35    1
    11     7     8    1
    12     8     9   ar
    13     8    13   ar
    14     9    10   ar
    15     9    36    1
    16    10    11   ar
    17    10    26    1
    18    11    12   ar
    19    11    14    1
    20    12    13   ar
    21    12    17    1
    22    13    37    1
    23    14    15    1
    24    14    25    2
    25    15    16    1
    26    15    38    1
    27    15    39    1
    28    16    17    1
    29    16    18    1
    30    16    40    1
    31    18    19   ar
    32    18    23   ar
    33    19    20   ar
    34    19    41    1
    35    20    21   ar
    36    20    42    1
    37    21    22   ar
    38    21    24    1
    39    22    23   ar
    40    22    43    1
    41    23    44    1
    42    24    45    1
    43    26    46    1
    44    27    47    1
    45    28    48    1
    46    29    49    1
    47    30    50    1
    48     1    31    1
    49     1    27    1
    50     2    32    1
    51     2    28    1
    52     4    34    1
    53     4    30    1
