@<TRIPOS>MOLECULE
*****
 50 53 0 0 0
SMALL
GASTEIGER

@<TRIPOS>ATOM
     1 C         -0.563826   -1.411021   1.569052 C.3        1 UNL1     0.1889
     2 C         -0.576844   -0.928466   0.093616 C.3        1 UNL1     0.1342
     3 C         -1.97812   -0.709531   -0.49711 C.3        1 UNL1     0.1174
     4 C         -3.008803   -1.709014   0.033779 C.3        1 UNL1     0.1456
     5 C         -2.93993   -1.87158   1.563221 C.3        1 UNL1     0.2326
     6 O         -1.6273   -2.271005   1.95095 O.3        1 UNL1     -0.3076
     7 O         -3.417377   -0.721021   2.284039 O.3        1 UNL1     -0.4605
     8 C         -4.012556   -0.975588   3.50653 C.ar        1 UNL1     0.1310
     9 C         -4.960705   -1.974143   3.75392 C.ar        1 UNL1     0.0226
     10 C         -5.493807   -2.164737   5.034302 C.ar        1 UNL1     0.1343
     11 C         -5.073578   -1.376097   6.104486 C.ar        1 UNL1     0.1007
     12 C         -4.157779   -0.348954   5.861436 C.ar        1 UNL1     0.1389
     13 C         -3.623871   -0.155799   4.57339 C.ar        1 UNL1     0.0229
     14 C         -5.541037   -1.588743   7.493881 C.2        1 UNL1     0.1740
     15 C         -4.821387   -0.800839   8.548802 C.3        1 UNL1     0.0520
     16 C         -4.567067   0.601466   8.013246 C.3        1 UNL1     0.1322
     17 O         -3.757035   0.554793   6.817947 O.3        1 UNL1     -0.4828
     18 C         -5.833149   1.452497   7.888716 C.ar        1 UNL1     -0.0067
     19 C         -6.082455   2.15173   6.689912 C.ar        1 UNL1     -0.0516
     20 C         -7.206265   2.976393   6.55974 C.ar        1 UNL1     -0.0198
     21 C         -8.082412   3.115657   7.621249 C.ar        1 UNL1     0.1169
     22 C         -7.881805   2.413854   8.802802 C.ar        1 UNL1     -0.0198
     23 C         -6.767998   1.574732   8.926749 C.ar        1 UNL1     -0.0516
     24 O         -9.14542   3.956967   7.47088 O.3        1 UNL1     -0.5068
     25 O         -6.403004   -2.408669   7.799203 O.2        1 UNL1     -0.2917
     26 O         -6.415707   -3.155333   5.20867 O.3        1 UNL1     -0.5058
     27 O         -0.376763   -0.361732   2.505421 O.3        1 UNL1     -0.3648
     28 O         0.07936   -1.921146   -0.716747 O.3        1 UNL1     -0.3841
     29 O         -2.390168   0.649156   -0.334872 O.3        1 UNL1     -0.3863
     30 O         -2.780713   -2.996015   -0.580461 O.3        1 UNL1     -0.3829
     31 H         0.326881   -2.038093   1.685245 H        1 UNL1     0.0937
     32 H         0.0   0.0   0.0 H        1 UNL1     0.0671
     33 H         -1.912711   -0.866929   -1.582775 H        1 UNL1     0.0649
     34 H         -4.018189   -1.392225   -0.251151 H        1 UNL1     0.0683
     35 H         -3.605241   -2.719373   1.769344 H        1 UNL1     0.1085
     36 H         -5.286605   -2.656244   2.976329 H        1 UNL1     0.0691
     37 H         -2.913245   0.65157   4.41011 H        1 UNL1     0.0691
     38 H         -3.880311   -1.318055   8.764186 H        1 UNL1     0.0385
     39 H         -5.42383   -0.791762   9.463546 H        1 UNL1     0.0385
     40 H         -3.939358   1.120517   8.75019 H        1 UNL1     0.0789
     41 H         -5.404936   2.066317   5.845327 H        1 UNL1     0.0623
     42 H         -7.381161   3.519664   5.634387 H        1 UNL1     0.0654
     43 H         -8.569742   2.503894   9.634995 H        1 UNL1     0.0654
     44 H         -6.648078   1.033374   9.860235 H        1 UNL1     0.0623
     45 H         -8.807267   4.850614   7.298357 H        1 UNL1     0.2921
     46 H         -6.108569   -3.765477   5.897729 H        1 UNL1     0.2922
     47 H         0.436157   0.123517   2.30654 H        1 UNL1     0.2126
     48 H         0.998133   -1.984655   -0.391854 H        1 UNL1     0.2101
     49 H         -1.611578   1.222394   -0.251272 H        1 UNL1     0.2100
     50 H         -2.964952   -2.909644   -1.538745 H        1 UNL1     0.2102
@<TRIPOS>BOND
     1     1     2    1
     2     1     6    1
     3     2     3    1
     4     3     4    1
     5     3    29    1
     6     3    33    1
     7     4     5    1
     8     5     6    1
     9     5     7    1
    10     5    35    1
    11     7     8    1
    12     8     9   ar
    13     8    13   ar
    14     9    10   ar
    15     9    36    1
    16    10    11   ar
    17    10    26    1
    18    11    12   ar
    19    11    14    1
    20    12    13   ar
    21    12    17    1
    22    13    37    1
    23    14    15    1
    24    14    25    2
    25    15    16    1
    26    15    38    1
    27    15    39    1
    28    16    17    1
    29    16    18    1
    30    16    40    1
    31    18    19   ar
    32    18    23   ar
    33    19    20   ar
    34    19    41    1
    35    20    21   ar
    36    20    42    1
    37    21    22   ar
    38    21    24    1
    39    22    23   ar
    40    22    43    1
    41    23    44    1
    42    24    45    1
    43    26    46    1
    44    27    47    1
    45    28    48    1
    46    29    49    1
    47    30    50    1
    48     1    31    1
    49     1    27    1
    50     2    32    1
    51     2    28    1
    52     4    34    1
    53     4    30    1
