@<TRIPOS>MOLECULE
*****
 50 53 0 0 0
SMALL
GASTEIGER

@<TRIPOS>ATOM
     1 C         -0.090925   -1.094821   1.88783 C.3        1 UNL1     0.1889
     2 C         -0.567364   -0.832766   0.433776 C.3        1 UNL1     0.1342
     3 C         -2.069546   -0.542437   0.293692 C.3        1 UNL1     0.1174
     4 C         -2.921812   -1.329616   1.292246 C.3        1 UNL1     0.1456
     5 C         -2.35543   -1.275775   2.722867 C.3        1 UNL1     0.2326
     6 O         -1.015417   -1.762719   2.733775 O.3        1 UNL1     -0.3076
     7 O         -2.493843   0.014135   3.346 O.3        1 UNL1     -0.4605
     8 C         -2.671546   0.008736   4.717831 C.ar        1 UNL1     0.1310
     9 C         -3.542453   -0.832351   5.418826 C.ar        1 UNL1     0.0226
     10 C         -3.639068   -0.773189   6.814199 C.ar        1 UNL1     0.1343
     11 C         -2.848863   0.112956   7.545064 C.ar        1 UNL1     0.1007
     12 C         -2.005445   0.98634   6.853233 C.ar        1 UNL1     0.1389
     13 C         -1.910421   0.928481   5.450004 C.ar        1 UNL1     0.0229
     14 C         -2.849257   0.159224   9.025609 C.2        1 UNL1     0.1740
     15 C         -1.78151   1.009492   9.648913 C.3        1 UNL1     0.0520
     16 C         -1.636321   2.281458   8.824912 C.3        1 UNL1     0.1322
     17 O         -1.264131   1.971098   7.463948 O.3        1 UNL1     -0.4828
     18 C         -2.823298   3.238956   8.955326 C.ar        1 UNL1     -0.0067
     19 C         -2.962587   4.298607   8.035569 C.ar        1 UNL1     -0.0516
     20 C         -4.009757   5.22014   8.154631 C.ar        1 UNL1     -0.0198
     21 C         -4.917849   5.097481   9.191043 C.ar        1 UNL1     0.1169
     22 C         -4.826501   4.045203   10.092821 C.ar        1 UNL1     -0.0198
     23 C         -3.790176   3.112859   9.963115 C.ar        1 UNL1     -0.0516
     24 O         -5.902247   6.035612   9.297221 O.3        1 UNL1     -0.5068
     25 O         -3.609796   -0.507234   9.722675 O.2        1 UNL1     -0.2917
     26 O         -4.50855   -1.620056   7.437418 O.3        1 UNL1     -0.5058
     27 O         0.461583   0.050565   2.516807 O.3        1 UNL1     -0.3648
     28 O         -0.281227   -2.000985   -0.357485 O.3        1 UNL1     -0.3841
     29 O         -2.32065   0.863617   0.339404 O.3        1 UNL1     -0.3863
     30 O         -2.990531   -2.709584   0.871944 O.3        1 UNL1     -0.3829
     31 H         0.747707   -1.796429   1.820578 H        1 UNL1     0.0937
     32 H         0.0   0.0   0.0 H        1 UNL1     0.0671
     33 H         -2.38059   -0.861865   -0.710767 H        1 UNL1     0.0649
     34 H         -3.947251   -0.943777   1.294491 H        1 UNL1     0.0683
     35 H         -2.963496   -2.002816   3.275631 H        1 UNL1     0.1085
     36 H         -4.142219   -1.58119   4.913215 H        1 UNL1     0.0691
     37 H         -1.24712   1.620079   4.935011 H        1 UNL1     0.0691
     38 H         -0.852643   0.429209   9.646575 H        1 UNL1     0.0385
     39 H         -2.051377   1.218896   10.689634 H        1 UNL1     0.0385
     40 H         -0.77426   2.830869   9.226806 H        1 UNL1     0.0789
     41 H         -2.25753   4.421963   7.218667 H        1 UNL1     0.0623
     42 H         -4.099521   6.039842   7.446081 H        1 UNL1     0.0654
     43 H         -5.541013   3.931048   10.899265 H        1 UNL1     0.0654
     44 H         -3.755363   2.297364   10.679076 H        1 UNL1     0.0623
     45 H         -5.489887   6.891575   9.49723 H        1 UNL1     0.2921
     46 H         -4.033302   -2.135789   8.107919 H        1 UNL1     0.2922
     47 H         1.175348   0.417567   1.976706 H        1 UNL1     0.2126
     48 H         0.691356   -2.077705   -0.401402 H        1 UNL1     0.2101
     49 H         -1.983139   1.285506   -0.466753 H        1 UNL1     0.2100
     50 H         -3.503382   -2.745599   0.038038 H        1 UNL1     0.2102
@<TRIPOS>BOND
     1     1     2    1
     2     1     6    1
     3     2     3    1
     4     3     4    1
     5     3    29    1
     6     3    33    1
     7     4     5    1
     8     5     6    1
     9     5     7    1
    10     5    35    1
    11     7     8    1
    12     8     9   ar
    13     8    13   ar
    14     9    10   ar
    15     9    36    1
    16    10    11   ar
    17    10    26    1
    18    11    12   ar
    19    11    14    1
    20    12    13   ar
    21    12    17    1
    22    13    37    1
    23    14    15    1
    24    14    25    2
    25    15    16    1
    26    15    38    1
    27    15    39    1
    28    16    17    1
    29    16    18    1
    30    16    40    1
    31    18    19   ar
    32    18    23   ar
    33    19    20   ar
    34    19    41    1
    35    20    21   ar
    36    20    42    1
    37    21    22   ar
    38    21    24    1
    39    22    23   ar
    40    22    43    1
    41    23    44    1
    42    24    45    1
    43    26    46    1
    44    27    47    1
    45    28    48    1
    46    29    49    1
    47    30    50    1
    48     1    31    1
    49     1    27    1
    50     2    32    1
    51     2    28    1
    52     4    34    1
    53     4    30    1
