@<TRIPOS>MOLECULE
*****
 50 53 0 0 0
SMALL
GASTEIGER

@<TRIPOS>ATOM
     1 C         0.644071   -1.444103   -1.506832 C.3        1 UNL1     0.1889
     2 C         0.339908   -1.042374   -0.038487 C.3        1 UNL1     0.1342
     3 C         1.51706   -1.221758   0.932388 C.3        1 UNL1     0.1174
     4 C         2.388137   -2.43344   0.591552 C.3        1 UNL1     0.1456
     5 C         2.732754   -2.50978   -0.907039 C.3        1 UNL1     0.2326
     6 O         1.535249   -2.535914   -1.680453 O.3        1 UNL1     -0.3076
     7 O         3.660299   -1.495666   -1.334302 O.3        1 UNL1     -0.4605
     8 C         3.658193   -0.323766   -0.599338 C.ar        1 UNL1     0.1310
     9 C         3.664674   -0.243177   0.797359 C.ar        1 UNL1     0.0226
     10 C         3.679321   0.994843   1.450806 C.ar        1 UNL1     0.1343
     11 C         3.711927   2.183287   0.722535 C.ar        1 UNL1     0.1007
     12 C         3.664281   2.116308   -0.672466 C.ar        1 UNL1     0.1389
     13 C         3.646886   0.871407   -1.329238 C.ar        1 UNL1     0.0229
     14 C         3.812744   3.51627   1.360616 C.2        1 UNL1     0.1740
     15 C         4.061334   4.665317   0.428177 C.3        1 UNL1     0.0520
     16 C         3.223541   4.457945   -0.826039 C.3        1 UNL1     0.1322
     17 O         3.583307   3.223533   -1.484724 O.3        1 UNL1     -0.4828
     18 C         1.720873   4.642168   -0.600709 C.ar        1 UNL1     -0.0067
     19 C         0.964398   5.373638   -1.539277 C.ar        1 UNL1     -0.0516
     20 C         -0.402456   5.601123   -1.339467 C.ar        1 UNL1     -0.0198
     21 C         -1.021535   5.109802   -0.20405 C.ar        1 UNL1     0.1169
     22 C         -0.31056   4.3573   0.721744 C.ar        1 UNL1     -0.0198
     23 C         1.052254   4.113954   0.512994 C.ar        1 UNL1     -0.0516
     24 O         -2.345661   5.383523   -0.024694 O.3        1 UNL1     -0.5068
     25 O         3.779522   3.688186   2.576275 O.2        1 UNL1     -0.2917
     26 O         3.683812   1.004476   2.815164 O.3        1 UNL1     -0.5058
     27 O         0.995115   -0.345096   -2.332507 O.3        1 UNL1     -0.3648
     28 O         -0.741666   -1.861151   0.443705 O.3        1 UNL1     -0.3841
     29 O         2.270401   -0.012635   1.044781 O.3        1 UNL1     -0.3863
     30 O         1.690095   -3.639983   0.969282 O.3        1 UNL1     -0.3829
     31 H         -0.296462   -1.811174   -1.931964 H        1 UNL1     0.0937
     32 H         0.0   0.0   0.0 H        1 UNL1     0.0671
     33 H         1.101473   -1.400751   1.933871 H        1 UNL1     0.0649
     34 H         3.315163   -2.403509   1.174758 H        1 UNL1     0.0683
     35 H         3.206739   -3.492898   -1.019718 H        1 UNL1     0.1085
     36 H         3.696433   -1.130833   1.419597 H        1 UNL1     0.0691
     37 H         3.60879   0.846393   -2.416168 H        1 UNL1     0.0691
     38 H         5.130701   4.674595   0.191758 H        1 UNL1     0.0385
     39 H         3.815989   5.602263   0.939758 H        1 UNL1     0.0385
     40 H         3.508817   5.243017   -1.539341 H        1 UNL1     0.0789
     41 H         1.42898   5.777622   -2.434046 H        1 UNL1     0.0623
     42 H         -0.972339   6.17682   -2.0646 H        1 UNL1     0.0654
     43 H         -0.788807   3.955042   1.60683 H        1 UNL1     0.0654
     44 H         1.574333   3.513178   1.25147 H        1 UNL1     0.0623
     45 H         -2.804376   5.246209   -0.869349 H        1 UNL1     0.2921
     46 H         3.128252   1.732643   3.135378 H        1 UNL1     0.2922
     47 H         1.712478   -0.592744   -2.93244 H        1 UNL1     0.2126
     48 H         -0.420749   -2.783442   0.432527 H        1 UNL1     0.2101
     49 H         1.744373   0.662632   1.502058 H        1 UNL1     0.2100
     50 H         1.626611   -3.658149   1.946703 H        1 UNL1     0.2102
@<TRIPOS>BOND
     1     1     2    1
     2     1     6    1
     3     2     3    1
     4     3     4    1
     5     3    29    1
     6     3    33    1
     7     4     5    1
     8     5     6    1
     9     5     7    1
    10     5    35    1
    11     7     8    1
    12     8     9   ar
    13     8    13   ar
    14     9    10   ar
    15     9    36    1
    16    10    11   ar
    17    10    26    1
    18    11    12   ar
    19    11    14    1
    20    12    13   ar
    21    12    17    1
    22    13    37    1
    23    14    15    1
    24    14    25    2
    25    15    16    1
    26    15    38    1
    27    15    39    1
    28    16    17    1
    29    16    18    1
    30    16    40    1
    31    18    19   ar
    32    18    23   ar
    33    19    20   ar
    34    19    41    1
    35    20    21   ar
    36    20    42    1
    37    21    22   ar
    38    21    24    1
    39    22    23   ar
    40    22    43    1
    41    23    44    1
    42    24    45    1
    43    26    46    1
    44    27    47    1
    45    28    48    1
    46    29    49    1
    47    30    50    1
    48     1    31    1
    49     1    27    1
    50     2    32    1
    51     2    28    1
    52     4    34    1
    53     4    30    1
