@<TRIPOS>MOLECULE
*****
 50 53 0 0 0
SMALL
GASTEIGER

@<TRIPOS>ATOM
     1 C         -0.330377   -1.327223   1.702978 C.3        1 UNL1     0.1889
     2 C         -0.461679   -0.975575   0.196644 C.3        1 UNL1     0.1342
     3 C         -1.902726   -0.964489   -0.336013 C.3        1 UNL1     0.1174
     4 C         -2.788013   -2.023868   0.325124 C.3        1 UNL1     0.1456
     5 C         -2.635792   -2.047889   1.856991 C.3        1 UNL1     0.2326
     6 O         -1.270605   -2.264709   2.206451 O.3        1 UNL1     -0.3076
     7 O         -3.211291   -0.90074   2.508275 O.3        1 UNL1     -0.4605
     8 C         -3.720174   -1.115519   3.776517 C.ar        1 UNL1     0.1310
     9 C         -4.535436   -2.188854   4.151482 C.ar        1 UNL1     0.0226
     10 C         -4.987603   -2.328475   5.469038 C.ar        1 UNL1     0.1343
     11 C         -4.615542   -1.410164   6.449914 C.ar        1 UNL1     0.1007
     12 C         -3.835494   -0.311755   6.078691 C.ar        1 UNL1     0.1389
     13 C         -3.383151   -0.170159   4.75326 C.ar        1 UNL1     0.0229
     14 C         -4.995346   -1.55508   7.874309 C.2        1 UNL1     0.1740
     15 C         -4.326707   -0.605457   8.824408 C.3        1 UNL1     0.0520
     16 C         -4.258901   0.766012   8.166811 C.3        1 UNL1     0.1322
     17 O         -3.500912   0.708733   6.938299 O.3        1 UNL1     -0.4828
     18 C         -5.618793   1.457183   8.041509 C.ar        1 UNL1     -0.0067
     19 C         -5.999001   2.018614   6.805204 C.ar        1 UNL1     -0.0516
     20 C         -7.214913   2.699004   6.66886 C.ar        1 UNL1     -0.0198
     21 C         -8.054152   2.830864   7.760702 C.ar        1 UNL1     0.1169
     22 C         -7.722729   2.259992   8.982628 C.ar        1 UNL1     -0.0198
     23 C         -6.515348   1.56364   9.114473 C.ar        1 UNL1     -0.0516
     24 O         -9.212523   3.532754   7.599687 O.3        1 UNL1     -0.5068
     25 O         -5.743181   -2.43704   8.288282 O.2        1 UNL1     -0.2917
     26 O         -5.780864   -3.397193   5.76931 O.3        1 UNL1     -0.5058
     27 O         -0.22555   -0.188264   2.542364 O.3        1 UNL1     -0.3648
     28 O         0.269248   -1.954091   -0.565563 O.3        1 UNL1     -0.3841
     29 O         -2.461065   0.348794   -0.26067 O.3        1 UNL1     -0.3863
     30 O         -2.439749   -3.32483   -0.196315 O.3        1 UNL1     -0.3829
     31 H         0.630697   -1.839316   1.822049 H        1 UNL1     0.0937
     32 H         0.0   0.0   0.0 H        1 UNL1     0.0671
     33 H         -1.86596   -1.204855   -1.407737 H        1 UNL1     0.0649
     34 H         -3.838361   -1.846474   0.068798 H        1 UNL1     0.0683
     35 H         -3.189757   -2.943904   2.163843 H        1 UNL1     0.1085
     36 H         -4.81361   -2.966391   3.448505 H        1 UNL1     0.0691
     37 H         -2.777968   0.694552   4.489589 H        1 UNL1     0.0691
     38 H         -3.323928   -0.994581   9.030666 H        1 UNL1     0.0385
     39 H         -4.886385   -0.586058   9.76577 H        1 UNL1     0.0385
     40 H         -3.664161   1.412257   8.826487 H        1 UNL1     0.0789
     41 H         -5.353622   1.936664   5.935479 H        1 UNL1     0.0623
     42 H         -7.491392   3.13782   5.713344 H        1 UNL1     0.0654
     43 H         -8.379518   2.3443   9.8402 H        1 UNL1     0.0654
     44 H         -6.293293   1.121308   10.080847 H        1 UNL1     0.0623
     45 H         -8.987413   4.440072   7.337358 H        1 UNL1     0.2921
     46 H         -5.376182   -3.908784   6.487585 H        1 UNL1     0.2922
     47 H         0.517033   0.365693   2.263866 H        1 UNL1     0.2126
     48 H         1.20211   -1.887869   -0.284289 H        1 UNL1     0.2101
     49 H         -2.022861   0.930966   -0.901644 H        1 UNL1     0.2100
     50 H         -2.673363   -3.340796   -1.147568 H        1 UNL1     0.2102
@<TRIPOS>BOND
     1     1     2    1
     2     1     6    1
     3     2     3    1
     4     3     4    1
     5     3    29    1
     6     3    33    1
     7     4     5    1
     8     5     6    1
     9     5     7    1
    10     5    35    1
    11     7     8    1
    12     8     9   ar
    13     8    13   ar
    14     9    10   ar
    15     9    36    1
    16    10    11   ar
    17    10    26    1
    18    11    12   ar
    19    11    14    1
    20    12    13   ar
    21    12    17    1
    22    13    37    1
    23    14    15    1
    24    14    25    2
    25    15    16    1
    26    15    38    1
    27    15    39    1
    28    16    17    1
    29    16    18    1
    30    16    40    1
    31    18    19   ar
    32    18    23   ar
    33    19    20   ar
    34    19    41    1
    35    20    21   ar
    36    20    42    1
    37    21    22   ar
    38    21    24    1
    39    22    23   ar
    40    22    43    1
    41    23    44    1
    42    24    45    1
    43    26    46    1
    44    27    47    1
    45    28    48    1
    46    29    49    1
    47    30    50    1
    48     1    31    1
    49     1    27    1
    50     2    32    1
    51     2    28    1
    52     4    34    1
    53     4    30    1
