@<TRIPOS>MOLECULE
*****
 50 53 0 0 0
SMALL
GASTEIGER

@<TRIPOS>ATOM
     1 C         -0.913396   1.935405   0.436712 C.3        1 UNL1     0.1889
     2 C         -0.321866   0.893039   -0.549951 C.3        1 UNL1     0.1342
     3 C         0.850017   1.40758   -1.399894 C.3        1 UNL1     0.1174
     4 C         0.706355   2.884184   -1.776882 C.3        1 UNL1     0.1456
     5 C         0.306311   3.763229   -0.577879 C.3        1 UNL1     0.2326
     6 O         -0.909604   3.28395   -0.008044 O.3        1 UNL1     -0.3076
     7 O         1.359052   3.926345   0.389824 O.3        1 UNL1     -0.4605
     8 C         2.649204   3.906836   -0.10883 C.ar        1 UNL1     0.1310
     9 C         2.995749   3.736406   -1.453508 C.ar        1 UNL1     0.0226
     10 C         4.33442   3.748532   -1.86304 C.ar        1 UNL1     0.1343
     11 C         5.358822   3.955386   -0.940191 C.ar        1 UNL1     0.1007
     12 C         5.027639   4.085786   0.411141 C.ar        1 UNL1     0.1389
     13 C         3.681697   4.070914   0.823027 C.ar        1 UNL1     0.0229
     14 C         6.784125   4.061114   -1.329407 C.2        1 UNL1     0.1740
     15 C         7.721876   4.505618   -0.245622 C.3        1 UNL1     0.0520
     16 C         7.312483   3.826645   1.054128 C.3        1 UNL1     0.1322
     17 O         5.960963   4.185809   1.416709 O.3        1 UNL1     -0.4828
     18 C         7.598074   2.32316   1.080441 C.ar        1 UNL1     -0.0067
     19 C         8.754678   1.849255   1.733048 C.ar        1 UNL1     -0.0516
     20 C         9.07036   0.485326   1.735135 C.ar        1 UNL1     -0.0198
     21 C         8.24328   -0.411895   1.083399 C.ar        1 UNL1     0.1169
     22 C         7.079644   0.020209   0.460442 C.ar        1 UNL1     -0.0198
     23 C         6.754046   1.381774   0.473972 C.ar        1 UNL1     -0.0516
     24 O         8.602894   -1.727569   1.074381 O.3        1 UNL1     -0.5068
     25 O         7.187146   3.881147   -2.475561 O.2        1 UNL1     -0.2917
     26 O         4.605268   3.575602   -3.189057 O.3        1 UNL1     -0.5058
     27 O         -0.404584   1.817525   1.755803 O.3        1 UNL1     -0.3648
     28 O         -1.361508   0.482741   -1.457424 O.3        1 UNL1     -0.3841
     29 O         2.099351   1.116141   -0.770324 O.3        1 UNL1     -0.3863
     30 O         -0.299937   3.015024   -2.804475 O.3        1 UNL1     -0.3829
     31 H         -1.978986   1.701803   0.536847 H        1 UNL1     0.0937
     32 H         0.0   0.0   0.0 H        1 UNL1     0.0671
     33 H         0.857432   0.838789   -2.340182 H        1 UNL1     0.0649
     34 H         1.646462   3.255378   -2.199747 H        1 UNL1     0.0683
     35 H         0.084831   4.739206   -1.027649 H        1 UNL1     0.1085
     36 H         2.243321   3.627196   -2.226843 H        1 UNL1     0.0691
     37 H         3.450338   4.173375   1.881076 H        1 UNL1     0.0691
     38 H         7.641708   5.594892   -0.164487 H        1 UNL1     0.0385
     39 H         8.748799   4.258913   -0.536041 H        1 UNL1     0.0385
     40 H         7.933832   4.254474   1.852506 H        1 UNL1     0.0789
     41 H         9.424854   2.534429   2.24398 H        1 UNL1     0.0623
     42 H         9.971347   0.133726   2.231735 H        1 UNL1     0.0654
     43 H         6.417015   -0.675766   -0.04001 H        1 UNL1     0.0654
     44 H         5.831807   1.68279   -0.013581 H        1 UNL1     0.0623
     45 H         7.820011   -2.260962   1.287225 H        1 UNL1     0.2921
     46 H         4.499822   4.420821   -3.653704 H        1 UNL1     0.2922
     47 H         -0.027998   2.66006   2.045939 H        1 UNL1     0.2126
     48 H         -1.371971   -0.493747   -1.447658 H        1 UNL1     0.2101
     49 H         2.250393   0.157522   -0.764738 H        1 UNL1     0.2100
     50 H         -0.948787   2.290843   -2.685023 H        1 UNL1     0.2102
@<TRIPOS>BOND
     1     1     2    1
     2     1     6    1
     3     2     3    1
     4     3     4    1
     5     3    29    1
     6     3    33    1
     7     4     5    1
     8     5     6    1
     9     5     7    1
    10     5    35    1
    11     7     8    1
    12     8     9   ar
    13     8    13   ar
    14     9    10   ar
    15     9    36    1
    16    10    11   ar
    17    10    26    1
    18    11    12   ar
    19    11    14    1
    20    12    13   ar
    21    12    17    1
    22    13    37    1
    23    14    15    1
    24    14    25    2
    25    15    16    1
    26    15    38    1
    27    15    39    1
    28    16    17    1
    29    16    18    1
    30    16    40    1
    31    18    19   ar
    32    18    23   ar
    33    19    20   ar
    34    19    41    1
    35    20    21   ar
    36    20    42    1
    37    21    22   ar
    38    21    24    1
    39    22    23   ar
    40    22    43    1
    41    23    44    1
    42    24    45    1
    43    26    46    1
    44    27    47    1
    45    28    48    1
    46    29    49    1
    47    30    50    1
    48     1    31    1
    49     1    27    1
    50     2    32    1
    51     2    28    1
    52     4    34    1
    53     4    30    1
