@<TRIPOS>MOLECULE
*****
 50 53 0 0 0
SMALL
GASTEIGER

@<TRIPOS>ATOM
     1 C         -0.331884   -1.327931   1.702133 C.3        1 UNL1     0.1889
     2 C         -0.462479   -0.975333   0.195959 C.3        1 UNL1     0.1342
     3 C         -1.903363   -0.962849   -0.33711 C.3        1 UNL1     0.1174
     4 C         -2.78965   -2.021924   0.323172 C.3        1 UNL1     0.1456
     5 C         -2.637892   -2.046926   1.855069 C.3        1 UNL1     0.2326
     6 O         -1.272973   -2.264984   2.204804 O.3        1 UNL1     -0.3076
     7 O         -3.212706   -0.899706   2.506834 O.3        1 UNL1     -0.4605
     8 C         -3.722122   -1.114812   3.774805 C.ar        1 UNL1     0.1310
     9 C         -4.538311   -2.187737   4.148929 C.ar        1 UNL1     0.0226
     10 C         -4.990968   -2.327756   5.466274 C.ar        1 UNL1     0.1343
     11 C         -4.618492   -1.410282   6.447776 C.ar        1 UNL1     0.1007
     12 C         -3.837499   -0.312259   6.0774 C.ar        1 UNL1     0.1389
     13 C         -3.384662   -0.17026   4.75218 C.ar        1 UNL1     0.0229
     14 C         -4.998821   -1.555711   7.871979 C.2        1 UNL1     0.1740
     15 C         -4.329735   -0.607135   8.822807 C.3        1 UNL1     0.0520
     16 C         -4.260692   0.764653   8.166004 C.3        1 UNL1     0.1322
     17 O         -3.502389   0.707489   6.93768 O.3        1 UNL1     -0.4828
     18 C         -5.620021   1.456931   8.040697 C.ar        1 UNL1     -0.0067
     19 C         -5.99944   2.019349   6.804599 C.ar        1 UNL1     -0.0516
     20 C         -7.214794   2.700743   6.668285 C.ar        1 UNL1     -0.0198
     21 C         -8.054249   2.832626   7.759957 C.ar        1 UNL1     0.1169
     22 C         -7.723617   2.260813   8.981657 C.ar        1 UNL1     -0.0198
     23 C         -6.516807   1.563466   9.11346 C.ar        1 UNL1     -0.0516
     24 O         -9.212038   3.535491   7.599002 O.3        1 UNL1     -0.5068
     25 O         -5.747448   -2.437335   8.285236 O.2        1 UNL1     -0.2917
     26 O         -5.785131   -3.396038   5.765713 O.3        1 UNL1     -0.5058
     27 O         -0.226434   -0.189525   2.542192 O.3        1 UNL1     -0.3648
     28 O         0.267923   -1.953976   -0.566587 O.3        1 UNL1     -0.3841
     29 O         -2.460722   0.350818   -0.261188 O.3        1 UNL1     -0.3863
     30 O         -2.442225   -3.322857   -0.1989 O.3        1 UNL1     -0.3829
     31 H         0.628764   -1.840824   1.821194 H        1 UNL1     0.0937
     32 H         0.0   0.0   0.0 H        1 UNL1     0.0671
     33 H         -1.866468   -1.202638   -1.408959 H        1 UNL1     0.0649
     34 H         -3.839787   -1.843586   0.066641 H        1 UNL1     0.0683
     35 H         -3.19263   -2.942691   2.161254 H        1 UNL1     0.1085
     36 H         -4.816873   -2.964664   3.445432 H        1 UNL1     0.0691
     37 H         -2.778744   0.694138   4.489173 H        1 UNL1     0.0691
     38 H         -3.327313   -0.997139   9.029137 H        1 UNL1     0.0385
     39 H         -4.889672   -0.58784   9.764017 H        1 UNL1     0.0385
     40 H         -3.665652   1.410072   8.826217 H        1 UNL1     0.0789
     41 H         -5.353871   1.937397   5.935015 H        1 UNL1     0.0623
     42 H         -7.49066   3.140308   5.712936 H        1 UNL1     0.0654
     43 H         -8.380592   2.345138   9.839086 H        1 UNL1     0.0654
     44 H         -6.295369   1.12042   10.079649 H        1 UNL1     0.0623
     45 H         -8.98614   4.442975   7.33793 H        1 UNL1     0.2921
     46 H         -5.381048   -3.908342   6.483817 H        1 UNL1     0.2922
     47 H         0.516653   0.364022   2.264222 H        1 UNL1     0.2126
     48 H         1.200754   -1.888624   -0.285005 H        1 UNL1     0.2101
     49 H         -2.021888   0.933017   -0.901706 H        1 UNL1     0.2100
     50 H         -2.675574   -3.338109   -1.15023 H        1 UNL1     0.2102
@<TRIPOS>BOND
     1     1     2    1
     2     1     6    1
     3     2     3    1
     4     3     4    1
     5     3    29    1
     6     3    33    1
     7     4     5    1
     8     5     6    1
     9     5     7    1
    10     5    35    1
    11     7     8    1
    12     8     9   ar
    13     8    13   ar
    14     9    10   ar
    15     9    36    1
    16    10    11   ar
    17    10    26    1
    18    11    12   ar
    19    11    14    1
    20    12    13   ar
    21    12    17    1
    22    13    37    1
    23    14    15    1
    24    14    25    2
    25    15    16    1
    26    15    38    1
    27    15    39    1
    28    16    17    1
    29    16    18    1
    30    16    40    1
    31    18    19   ar
    32    18    23   ar
    33    19    20   ar
    34    19    41    1
    35    20    21   ar
    36    20    42    1
    37    21    22   ar
    38    21    24    1
    39    22    23   ar
    40    22    43    1
    41    23    44    1
    42    24    45    1
    43    26    46    1
    44    27    47    1
    45    28    48    1
    46    29    49    1
    47    30    50    1
    48     1    31    1
    49     1    27    1
    50     2    32    1
    51     2    28    1
    52     4    34    1
    53     4    30    1
