@<TRIPOS>MOLECULE
*****
 50 53 0 0 0
SMALL
GASTEIGER

@<TRIPOS>ATOM
     1 C         -0.345514   -1.336257   1.69288 C.3        1 UNL1     0.1889
     2 C         -0.469121   -0.97363   0.188498 C.3        1 UNL1     0.1342
     3 C         -1.908192   -0.948946   -0.349024 C.3        1 UNL1     0.1174
     4 C         -2.80311   -2.006534   0.301935 C.3        1 UNL1     0.1456
     5 C         -2.656398   -2.041865   1.83412 C.3        1 UNL1     0.2326
     6 O         -1.293976   -2.270521   2.186809 O.3        1 UNL1     -0.3076
     7 O         -3.226188   -0.895121   2.491111 O.3        1 UNL1     -0.4605
     8 C         -3.741393   -1.114934   3.755933 C.ar        1 UNL1     0.1310
     9 C         -4.564273   -2.185909   4.120873 C.ar        1 UNL1     0.0226
     10 C         -5.022531   -2.331202   5.435708 C.ar        1 UNL1     0.1343
     11 C         -4.649186   -1.421215   6.423826 C.ar        1 UNL1     0.1007
     12 C         -3.86139   -0.32499   6.062647 C.ar        1 UNL1     0.1389
     13 C         -3.402913   -0.177672   4.739951 C.ar        1 UNL1     0.0229
     14 C         -5.035544   -1.572889   7.845753 C.2        1 UNL1     0.1740
     15 C         -4.365325   -0.633099   8.804477 C.3        1 UNL1     0.0520
     16 C         -4.287043   0.742059   8.155809 C.3        1 UNL1     0.1322
     17 O         -3.524452   0.688147   6.929996 O.3        1 UNL1     -0.4828
     18 C         -5.642451   1.44179   8.029439 C.ar        1 UNL1     -0.0067
     19 C         -6.006956   2.028594   6.800207 C.ar        1 UNL1     -0.0516
     20 C         -7.218323   2.717092   6.664113 C.ar        1 UNL1     -0.0198
     21 C         -8.068576   2.831857   7.749345 C.ar        1 UNL1     0.1169
     22 C         -7.75274   2.236116   8.963503 C.ar        1 UNL1     -0.0198
     23 C         -6.549927   1.531785   9.094701 C.ar        1 UNL1     -0.0516
     24 O         -9.222048   3.542059   7.589608 O.3        1 UNL1     -0.5068
     25 O         -5.790063   -2.453128   8.251173 O.2        1 UNL1     -0.2917
     26 O         -5.823084   -3.397217   5.726072 O.3        1 UNL1     -0.5058
     27 O         -0.235712   -0.203697   2.540252 O.3        1 UNL1     -0.3648
     28 O         0.257649   -1.95209   -0.577744 O.3        1 UNL1     -0.3841
     29 O         -2.457661   0.367661   -0.266783 O.3        1 UNL1     -0.3863
     30 O         -2.462068   -3.306371   -0.227029 O.3        1 UNL1     -0.3829
     31 H         0.611561   -1.855816   1.811813 H        1 UNL1     0.0937
     32 H         0.0   0.0   0.0 H        1 UNL1     0.0671
     33 H         -1.86936   -1.182384   -1.422206 H        1 UNL1     0.0649
     34 H         -3.8513   -1.820119   0.043195 H        1 UNL1     0.0683
     35 H         -3.217636   -2.936034   2.13304 H        1 UNL1     0.1085
     36 H         -4.844048   -2.95741   3.411906 H        1 UNL1     0.0691
     37 H         -2.791747   0.685192   4.48415 H        1 UNL1     0.0691
     38 H         -3.365623   -1.029255   9.01228 H        1 UNL1     0.0385
     39 H         -4.92867   -0.616401   9.743701 H        1 UNL1     0.0385
     40 H         -3.691284   1.380729   8.821912 H        1 UNL1     0.0789
     41 H         -5.352701   1.960364   5.935947 H        1 UNL1     0.0623
     42 H         -7.482646   3.175437   5.714342 H        1 UNL1     0.0654
     43 H         -8.418265   2.30699   9.815537 H        1 UNL1     0.0654
     44 H         -6.340155   1.069968   10.054683 H        1 UNL1     0.0623
     45 H         -8.989972   4.45547   7.356076 H        1 UNL1     0.2921
     46 H         -5.424916   -3.914844   6.443663 H        1 UNL1     0.2922
     47 H         0.509039   0.349163   2.265386 H        1 UNL1     0.2126
     48 H         1.192939   -1.882024   -0.305614 H        1 UNL1     0.2101
     49 H         -2.019038   0.948975   -0.908248 H        1 UNL1     0.2100
     50 H         -2.697704   -3.316246   -1.177866 H        1 UNL1     0.2102
@<TRIPOS>BOND
     1     1     2    1
     2     1     6    1
     3     2     3    1
     4     3     4    1
     5     3    29    1
     6     3    33    1
     7     4     5    1
     8     5     6    1
     9     5     7    1
    10     5    35    1
    11     7     8    1
    12     8     9   ar
    13     8    13   ar
    14     9    10   ar
    15     9    36    1
    16    10    11   ar
    17    10    26    1
    18    11    12   ar
    19    11    14    1
    20    12    13   ar
    21    12    17    1
    22    13    37    1
    23    14    15    1
    24    14    25    2
    25    15    16    1
    26    15    38    1
    27    15    39    1
    28    16    17    1
    29    16    18    1
    30    16    40    1
    31    18    19   ar
    32    18    23   ar
    33    19    20   ar
    34    19    41    1
    35    20    21   ar
    36    20    42    1
    37    21    22   ar
    38    21    24    1
    39    22    23   ar
    40    22    43    1
    41    23    44    1
    42    24    45    1
    43    26    46    1
    44    27    47    1
    45    28    48    1
    46    29    49    1
    47    30    50    1
    48     1    31    1
    49     1    27    1
    50     2    32    1
    51     2    28    1
    52     4    34    1
    53     4    30    1
