@<TRIPOS>MOLECULE
*****
 50 53 0 0 0
SMALL
GASTEIGER

@<TRIPOS>ATOM
     1 C         -0.333889   -1.328954   1.700942 C.3        1 UNL1     0.1889
     2 C         -0.463416   -0.975086   0.194974 C.3        1 UNL1     0.1342
     3 C         -1.904017   -0.960955   -0.338817 C.3        1 UNL1     0.1174
     4 C         -2.791548   -2.019776   0.3202 C.3        1 UNL1     0.1456
     5 C         -2.640591   -2.046085   1.852154 C.3        1 UNL1     0.2326
     6 O         -1.276037   -2.265584   2.202415 O.3        1 UNL1     -0.3076
     7 O         -3.214752   -0.898874   2.504509 O.3        1 UNL1     -0.4605
     8 C         -3.725422   -1.114622   3.771867 C.ar        1 UNL1     0.1310
     9 C         -4.543022   -2.187048   4.144336 C.ar        1 UNL1     0.0226
     10 C         -4.996895   -2.327813   5.461184 C.ar        1 UNL1     0.1343
     11 C         -4.624273   -1.411629   6.443833 C.ar        1 UNL1     0.1007
     12 C         -3.841845   -0.314072   6.075106 C.ar        1 UNL1     0.1389
     13 C         -3.387784   -0.17132   4.750387 C.ar        1 UNL1     0.0229
     14 C         -5.005911   -1.557978   7.867592 C.2        1 UNL1     0.1740
     15 C         -4.336621   -0.610969   8.819839 C.3        1 UNL1     0.0520
     16 C         -4.265628   0.761351   8.164358 C.3        1 UNL1     0.1322
     17 O         -3.506385   0.704536   6.936599 O.3        1 UNL1     -0.4828
     18 C         -5.624139   1.455147   8.038584 C.ar        1 UNL1     -0.0067
     19 C         -6.001183   2.02073   6.803203 C.ar        1 UNL1     -0.0516
     20 C         -7.215713   2.703537   6.666614 C.ar        1 UNL1     -0.0198
     21 C         -8.056696   2.83369   7.757318 C.ar        1 UNL1     0.1169
     22 C         -7.728426   2.258789   8.978206 C.ar        1 UNL1     -0.0198
     23 C         -6.522447   1.560048   9.110234 C.ar        1 UNL1     -0.0516
     24 O         -9.213604   3.537971   7.596223 O.3        1 UNL1     -0.5068
     25 O         -5.755784   -2.439209   8.279427 O.2        1 UNL1     -0.2917
     26 O         -5.792404   -3.39555   5.75899 O.3        1 UNL1     -0.5058
     27 O         -0.227889   -0.191285   2.54193 O.3        1 UNL1     -0.3648
     28 O         0.266534   -1.953769   -0.567953 O.3        1 UNL1     -0.3841
     29 O         -2.460287   0.353131   -0.262168 O.3        1 UNL1     -0.3863
     30 O         -2.444975   -3.320605   -0.202696 O.3        1 UNL1     -0.3829
     31 H         0.626258   -1.842762   1.820097 H        1 UNL1     0.0937
     32 H         0.0   0.0   0.0 H        1 UNL1     0.0671
     33 H         -1.866783   -1.199951   -1.410831 H        1 UNL1     0.0649
     34 H         -3.841401   -1.840339   0.063273 H        1 UNL1     0.0683
     35 H         -3.196253   -2.941609   2.157369 H        1 UNL1     0.1085
     36 H         -4.821812   -2.963039   3.439897 H        1 UNL1     0.0691
     37 H         -2.78076   0.692694   4.48867 H        1 UNL1     0.0691
     38 H         -3.33477   -1.002199   9.026624 H        1 UNL1     0.0385
     39 H         -4.897304   -0.591964   9.760611 H        1 UNL1     0.0385
     40 H         -3.67046   1.405547   8.825649 H        1 UNL1     0.0789
     41 H         -5.354377   1.940178   5.934408 H        1 UNL1     0.0623
     42 H         -7.48974   3.145533   5.711857 H        1 UNL1     0.0654
     43 H         -8.386617   2.341753   9.834834 H        1 UNL1     0.0654
     44 H         -6.302869   1.114596   10.075741 H        1 UNL1     0.0623
     45 H         -8.986491   4.445844   7.337567 H        1 UNL1     0.2921
     46 H         -5.389435   -3.908932   6.47695 H        1 UNL1     0.2922
     47 H         0.515708   0.361926   2.264657 H        1 UNL1     0.2126
     48 H         1.199398   -1.888946   -0.286358 H        1 UNL1     0.2101
     49 H         -2.020628   0.935445   -0.902015 H        1 UNL1     0.2100
     50 H         -2.677853   -3.334926   -1.154155 H        1 UNL1     0.2102
@<TRIPOS>BOND
     1     1     2    1
     2     1     6    1
     3     2     3    1
     4     3     4    1
     5     3    29    1
     6     3    33    1
     7     4     5    1
     8     5     6    1
     9     5     7    1
    10     5    35    1
    11     7     8    1
    12     8     9   ar
    13     8    13   ar
    14     9    10   ar
    15     9    36    1
    16    10    11   ar
    17    10    26    1
    18    11    12   ar
    19    11    14    1
    20    12    13   ar
    21    12    17    1
    22    13    37    1
    23    14    15    1
    24    14    25    2
    25    15    16    1
    26    15    38    1
    27    15    39    1
    28    16    17    1
    29    16    18    1
    30    16    40    1
    31    18    19   ar
    32    18    23   ar
    33    19    20   ar
    34    19    41    1
    35    20    21   ar
    36    20    42    1
    37    21    22   ar
    38    21    24    1
    39    22    23   ar
    40    22    43    1
    41    23    44    1
    42    24    45    1
    43    26    46    1
    44    27    47    1
    45    28    48    1
    46    29    49    1
    47    30    50    1
    48     1    31    1
    49     1    27    1
    50     2    32    1
    51     2    28    1
    52     4    34    1
    53     4    30    1
