@<TRIPOS>MOLECULE
*****
 50 53 0 0 0
SMALL
GASTEIGER

@<TRIPOS>ATOM
     1 C         2.136198   -0.012751   0.455303 C.3        1 UNL1     0.1889
     2 C         0.704594   -0.597407   0.591789 C.3        1 UNL1     0.1342
     3 C         0.187709   -0.697461   2.035148 C.3        1 UNL1     0.1174
     4 C         1.293731   -1.029381   3.039967 C.3        1 UNL1     0.1456
     5 C         2.555387   -0.171435   2.833773 C.3        1 UNL1     0.2326
     6 O         3.040305   -0.332193   1.502653 O.3        1 UNL1     -0.3076
     7 O         2.379078   1.206711   3.209206 O.3        1 UNL1     -0.4605
     8 C         2.467493   1.482613   4.561829 C.ar        1 UNL1     0.1310
     9 C         2.618191   0.52975   5.575063 C.ar        1 UNL1     0.0226
     10 C         2.715766   0.911151   6.918534 C.ar        1 UNL1     0.1343
     11 C         2.688889   2.257548   7.279551 C.ar        1 UNL1     0.1007
     12 C         2.497596   3.215859   6.280636 C.ar        1 UNL1     0.1389
     13 C         2.396858   2.831943   4.93012 C.ar        1 UNL1     0.0229
     14 C         2.871824   2.721074   8.674482 C.2        1 UNL1     0.1740
     15 C         3.038331   4.201956   8.850019 C.3        1 UNL1     0.0520
     16 C         2.073743   4.910163   7.908758 C.3        1 UNL1     0.1322
     17 O         2.348086   4.559556   6.534393 O.3        1 UNL1     -0.4828
     18 C         0.604607   4.775824   8.316576 C.ar        1 UNL1     -0.0067
     19 C         0.225982   5.058827   9.645022 C.ar        1 UNL1     -0.0516
     20 C         -1.100719   4.900488   10.063061 C.ar        1 UNL1     -0.0198
     21 C         -2.054587   4.453785   9.166167 C.ar        1 UNL1     0.1169
     22 C         -1.719069   4.198923   7.842796 C.ar        1 UNL1     -0.0198
     23 C         -0.396118   4.374852   7.419823 C.ar        1 UNL1     -0.0516
     24 O         -3.328731   4.275313   9.619054 O.3        1 UNL1     -0.5068
     25 O         2.965649   1.959248   9.633284 O.2        1 UNL1     -0.2917
     26 O         2.86025   -0.067339   7.858357 O.3        1 UNL1     -0.5058
     27 O         2.154381   1.373102   0.152205 O.3        1 UNL1     -0.3648
     28 O         0.70105   -1.928099   0.042289 O.3        1 UNL1     -0.3841
     29 O         -0.550796   0.472894   2.391535 O.3        1 UNL1     -0.3863
     30 O         1.652566   -2.421918   2.906672 O.3        1 UNL1     -0.3829
     31 H         2.585266   -0.487038   -0.424167 H        1 UNL1     0.0937
     32 H         -0.0   0.0   0.0 H        1 UNL1     0.0671
     33 H         -0.536547   -1.523018   2.07551 H        1 UNL1     0.0649
     34 H         0.924601   -0.889906   4.062068 H        1 UNL1     0.0683
     35 H         3.297477   -0.62771   3.500852 H        1 UNL1     0.1085
     36 H         2.702105   -0.52875   5.35448 H        1 UNL1     0.0691
     37 H         2.247195   3.597268   4.171587 H        1 UNL1     0.0691
     38 H         4.077851   4.449149   8.609561 H        1 UNL1     0.0385
     39 H         2.858867   4.461494   9.898928 H        1 UNL1     0.0385
     40 H         2.294502   5.984572   7.967329 H        1 UNL1     0.0789
     41 H         0.957755   5.402052   10.370525 H        1 UNL1     0.0623
     42 H         -1.377851   5.110588   11.093143 H        1 UNL1     0.0654
     43 H         -2.461158   3.863102   7.128347 H        1 UNL1     0.0654
     44 H         -0.171616   4.17655   6.376214 H        1 UNL1     0.0623
     45 H         -3.364017   4.547036   10.550525 H        1 UNL1     0.2921
     46 H         2.856424   -0.935373   7.424866 H        1 UNL1     0.2922
     47 H         1.933858   1.515097   -0.778959 H        1 UNL1     0.2126
     48 H         1.205696   -2.488334   0.662935 H        1 UNL1     0.2101
     49 H         -0.777947   0.445327   3.334634 H        1 UNL1     0.2100
     50 H         1.611223   -2.654251   1.95587 H        1 UNL1     0.2102
@<TRIPOS>BOND
     1     1     2    1
     2     1     6    1
     3     2     3    1
     4     3     4    1
     5     3    29    1
     6     3    33    1
     7     4     5    1
     8     5     6    1
     9     5     7    1
    10     5    35    1
    11     7     8    1
    12     8     9   ar
    13     8    13   ar
    14     9    10   ar
    15     9    36    1
    16    10    11   ar
    17    10    26    1
    18    11    12   ar
    19    11    14    1
    20    12    13   ar
    21    12    17    1
    22    13    37    1
    23    14    15    1
    24    14    25    2
    25    15    16    1
    26    15    38    1
    27    15    39    1
    28    16    17    1
    29    16    18    1
    30    16    40    1
    31    18    19   ar
    32    18    23   ar
    33    19    20   ar
    34    19    41    1
    35    20    21   ar
    36    20    42    1
    37    21    22   ar
    38    21    24    1
    39    22    23   ar
    40    22    43    1
    41    23    44    1
    42    24    45    1
    43    26    46    1
    44    27    47    1
    45    28    48    1
    46    29    49    1
    47    30    50    1
    48     1    31    1
    49     1    27    1
    50     2    32    1
    51     2    28    1
    52     4    34    1
    53     4    30    1
