@<TRIPOS>MOLECULE
*****
 50 53 0 0 0
SMALL
GASTEIGER

@<TRIPOS>ATOM
     1 C         -0.969007   -1.166683   -1.57184 C.3        1 UNL1     0.1889
     2 C         -0.941916   0.012332   -0.562321 C.3        1 UNL1     0.1342
     3 C         -2.1164   0.035792   0.427882 C.3        1 UNL1     0.1174
     4 C         -3.423489   -0.467452   -0.189679 C.3        1 UNL1     0.1456
     5 C         -3.236902   -1.773509   -0.983255 C.3        1 UNL1     0.2326
     6 O         -2.25544   -1.58806   -2.000708 O.3        1 UNL1     -0.3076
     7 O         -2.979076   -2.918508   -0.150294 O.3        1 UNL1     -0.4605
     8 C         -2.102097   -2.718492   0.900625 C.ar        1 UNL1     0.1310
     9 C         -1.840261   -1.489032   1.514768 C.ar        1 UNL1     0.0226
     10 C         -0.94521   -1.391605   2.586818 C.ar        1 UNL1     0.1343
     11 C         -0.307687   -2.526318   3.086651 C.ar        1 UNL1     0.1007
     12 C         -0.529797   -3.753028   2.455279 C.ar        1 UNL1     0.1389
     13 C         -1.427792   -3.850293   1.375661 C.ar        1 UNL1     0.0229
     14 C         0.582736   -2.494268   4.269983 C.2        1 UNL1     0.1740
     15 C         1.002703   -3.832591   4.802963 C.3        1 UNL1     0.0520
     16 C         1.298355   -4.749492   3.624048 C.3        1 UNL1     0.1322
     17 O         0.126442   -4.913213   2.795263 O.3        1 UNL1     -0.4828
     18 C         2.570167   -4.377541   2.857973 C.ar        1 UNL1     -0.0067
     19 C         2.565311   -3.247198   2.015052 C.ar        1 UNL1     -0.0516
     20 C         3.696506   -2.906436   1.263892 C.ar        1 UNL1     -0.0198
     21 C         4.833735   -3.690386   1.341101 C.ar        1 UNL1     0.1169
     22 C         4.880347   -4.79041   2.187631 C.ar        1 UNL1     -0.0198
     23 C         3.755498   -5.120759   2.952902 C.ar        1 UNL1     -0.0516
     24 O         5.903129   -3.349267   0.566224 O.3        1 UNL1     -0.5068
     25 O         0.905767   -1.458281   4.845193 O.2        1 UNL1     -0.2917
     26 O         -0.733032   -0.162924   3.140812 O.3        1 UNL1     -0.5058
     27 O         -0.161737   -2.265444   -1.179634 O.3        1 UNL1     -0.3648
     28 O         -0.980359   1.246978   -1.301833 O.3        1 UNL1     -0.3841
     29 O         -1.775371   -0.648277   1.63531 O.3        1 UNL1     -0.3863
     30 O         -3.948358   0.543839   -1.077087 O.3        1 UNL1     -0.3829
     31 H         -0.499239   -0.801723   -2.491732 H        1 UNL1     0.0937
     32 H         0.0   0.0   0.0 H        1 UNL1     0.0671
     33 H         -2.285799   1.080884   0.72251 H        1 UNL1     0.0649
     34 H         -4.171644   -0.624856   0.595107 H        1 UNL1     0.0683
     35 H         -4.199506   -1.914599   -1.490567 H        1 UNL1     0.1085
     36 H         -2.346147   -0.579757   1.209124 H        1 UNL1     0.0691
     37 H         -1.582443   -4.816716   0.900684 H        1 UNL1     0.0691
     38 H         0.17732   -4.2217   5.408656 H        1 UNL1     0.0385
     39 H         1.873379   -3.702268   5.454668 H        1 UNL1     0.0385
     40 H         1.487771   -5.75132   4.032683 H        1 UNL1     0.0789
     41 H         1.681996   -2.620967   1.929975 H        1 UNL1     0.0623
     42 H         3.676343   -2.039231   0.608483 H        1 UNL1     0.0654
     43 H         5.770838   -5.402469   2.26713 H        1 UNL1     0.0654
     44 H         3.830684   -5.980617   3.611565 H        1 UNL1     0.0623
     45 H         5.988427   -4.005112   -0.144626 H        1 UNL1     0.2921
     46 H         0.218536   -0.028046   3.273995 H        1 UNL1     0.2922
     47 H         0.746547   -1.973358   -1.01974 H        1 UNL1     0.2126
     48 H         -1.921695   1.438363   -1.477876 H        1 UNL1     0.2101
     49 H         -2.52799   -1.182049   1.936054 H        1 UNL1     0.2100
     50 H         -4.239588   1.302883   -0.530507 H        1 UNL1     0.2102
@<TRIPOS>BOND
     1     1     2    1
     2     1     6    1
     3     2     3    1
     4     3     4    1
     5     3    29    1
     6     3    33    1
     7     4     5    1
     8     5     6    1
     9     5     7    1
    10     5    35    1
    11     7     8    1
    12     8     9   ar
    13     8    13   ar
    14     9    10   ar
    15     9    36    1
    16    10    11   ar
    17    10    26    1
    18    11    12   ar
    19    11    14    1
    20    12    13   ar
    21    12    17    1
    22    13    37    1
    23    14    15    1
    24    14    25    2
    25    15    16    1
    26    15    38    1
    27    15    39    1
    28    16    17    1
    29    16    18    1
    30    16    40    1
    31    18    19   ar
    32    18    23   ar
    33    19    20   ar
    34    19    41    1
    35    20    21   ar
    36    20    42    1
    37    21    22   ar
    38    21    24    1
    39    22    23   ar
    40    22    43    1
    41    23    44    1
    42    24    45    1
    43    26    46    1
    44    27    47    1
    45    28    48    1
    46    29    49    1
    47    30    50    1
    48     1    31    1
    49     1    27    1
    50     2    32    1
    51     2    28    1
    52     4    34    1
    53     4    30    1
