@<TRIPOS>MOLECULE
*****
 50 53 0 0 0
SMALL
GASTEIGER

@<TRIPOS>ATOM
     1 C         -0.331871   -1.327925   1.70214 C.3        1 UNL1     0.1889
     2 C         -0.462473   -0.975335   0.195965 C.3        1 UNL1     0.1342
     3 C         -1.903358   -0.962862   -0.337101 C.3        1 UNL1     0.1174
     4 C         -2.789637   -2.02194   0.323188 C.3        1 UNL1     0.1456
     5 C         -2.637875   -2.046933   1.855085 C.3        1 UNL1     0.2326
     6 O         -1.272954   -2.264982   2.204817 O.3        1 UNL1     -0.3076
     7 O         -3.212695   -0.899715   2.506845 O.3        1 UNL1     -0.4605
     8 C         -3.722107   -1.114818   3.774819 C.ar        1 UNL1     0.1310
     9 C         -4.538288   -2.187746   4.148949 C.ar        1 UNL1     0.0226
     10 C         -4.99094   -2.327761   5.466297 C.ar        1 UNL1     0.1343
     11 C         -4.618468   -1.410281   6.447793 C.ar        1 UNL1     0.1007
     12 C         -3.837482   -0.312255   6.07741 C.ar        1 UNL1     0.1389
     13 C         -3.38465   -0.170259   4.752189 C.ar        1 UNL1     0.0229
     14 C         -4.998793   -1.555706   7.871998 C.2        1 UNL1     0.1740
     15 C         -4.32971   -0.607121   8.82282 C.3        1 UNL1     0.0520
     16 C         -4.260678   0.764664   8.166011 C.3        1 UNL1     0.1322
     17 O         -3.502377   0.707499   6.937685 O.3        1 UNL1     -0.4828
     18 C         -5.620011   1.456933   8.040704 C.ar        1 UNL1     -0.0067
     19 C         -5.999437   2.019343   6.804604 C.ar        1 UNL1     -0.0516
     20 C         -7.214794   2.700728   6.66829 C.ar        1 UNL1     -0.0198
     21 C         -8.054248   2.832612   7.759963 C.ar        1 UNL1     0.1169
     22 C         -7.72361   2.260806   8.981665 C.ar        1 UNL1     -0.0198
     23 C         -6.516795   1.563468   9.113468 C.ar        1 UNL1     -0.0516
     24 O         -9.212042   3.535468   7.599007 O.3        1 UNL1     -0.5068
     25 O         -5.747414   -2.437333   8.285261 O.2        1 UNL1     -0.2917
     26 O         -5.785096   -3.396047   5.765742 O.3        1 UNL1     -0.5058
     27 O         -0.226426   -0.189515   2.542193 O.3        1 UNL1     -0.3648
     28 O         0.267934   -1.953977   -0.566579 O.3        1 UNL1     -0.3841
     29 O         -2.460725   0.350801   -0.261184 O.3        1 UNL1     -0.3863
     30 O         -2.442205   -3.322873   -0.198879 O.3        1 UNL1     -0.3829
     31 H         0.62878   -1.840812   1.821201 H        1 UNL1     0.0937
     32 H         0.0   0.0   0.0 H        1 UNL1     0.0671
     33 H         -1.866464   -1.202656   -1.408949 H        1 UNL1     0.0649
     34 H         -3.839775   -1.843609   0.066658 H        1 UNL1     0.0683
     35 H         -3.192606   -2.942701   2.161275 H        1 UNL1     0.1085
     36 H         -4.816846   -2.964678   3.445457 H        1 UNL1     0.0691
     37 H         -2.778738   0.694141   4.489176 H        1 UNL1     0.0691
     38 H         -3.327285   -0.997119   9.02915 H        1 UNL1     0.0385
     39 H         -4.889645   -0.587826   9.764032 H        1 UNL1     0.0385
     40 H         -3.66564   1.41009   8.826219 H        1 UNL1     0.0789
     41 H         -5.353869   1.937391   5.935019 H        1 UNL1     0.0623
     42 H         -7.490666   3.140288   5.71294 H        1 UNL1     0.0654
     43 H         -8.380583   2.345131   9.839095 H        1 UNL1     0.0654
     44 H         -6.295352   1.120427   10.079658 H        1 UNL1     0.0623
     45 H         -8.98615   4.442953   7.337931 H        1 UNL1     0.2921
     46 H         -5.380922   -3.908443   6.48373 H        1 UNL1     0.2922
     47 H         0.516551   0.364124   2.264113 H        1 UNL1     0.2126
     48 H         1.200885   -1.88813   -0.285511 H        1 UNL1     0.2101
     49 H         -2.021896   0.933   -0.901705 H        1 UNL1     0.2100
     50 H         -2.675556   -3.338131   -1.150208 H        1 UNL1     0.2102
@<TRIPOS>BOND
     1     1     2    1
     2     1     6    1
     3     2     3    1
     4     3     4    1
     5     3    29    1
     6     3    33    1
     7     4     5    1
     8     5     6    1
     9     5     7    1
    10     5    35    1
    11     7     8    1
    12     8     9   ar
    13     8    13   ar
    14     9    10   ar
    15     9    36    1
    16    10    11   ar
    17    10    26    1
    18    11    12   ar
    19    11    14    1
    20    12    13   ar
    21    12    17    1
    22    13    37    1
    23    14    15    1
    24    14    25    2
    25    15    16    1
    26    15    38    1
    27    15    39    1
    28    16    17    1
    29    16    18    1
    30    16    40    1
    31    18    19   ar
    32    18    23   ar
    33    19    20   ar
    34    19    41    1
    35    20    21   ar
    36    20    42    1
    37    21    22   ar
    38    21    24    1
    39    22    23   ar
    40    22    43    1
    41    23    44    1
    42    24    45    1
    43    26    46    1
    44    27    47    1
    45    28    48    1
    46    29    49    1
    47    30    50    1
    48     1    31    1
    49     1    27    1
    50     2    32    1
    51     2    28    1
    52     4    34    1
    53     4    30    1
