@<TRIPOS>MOLECULE
*****
 50 53 0 0 0
SMALL
GASTEIGER

@<TRIPOS>ATOM
     1 C         -0.1629   -1.27292   1.767468 C.3        1 UNL1     0.1889
     2 C         -0.37485   -0.999227   0.254157 C.3        1 UNL1     0.1342
     3 C         -1.829997   -1.124764   -0.222553 C.3        1 UNL1     0.1174
     4 C         -2.60378   -2.220301   0.515131 C.3        1 UNL1     0.1456
     5 C         -2.396335   -2.164931   2.039684 C.3        1 UNL1     0.2326
     6 O         -1.006723   -2.258305   2.344855 O.3        1 UNL1     -0.3076
     7 O         -3.038604   -1.039001   2.665058 O.3        1 UNL1     -0.4605
     8 C         -3.49425   -1.240773   3.955485 C.ar        1 UNL1     0.1310
     9 C         -4.215209   -2.356207   4.395172 C.ar        1 UNL1     0.0226
     10 C         -4.618636   -2.476911   5.730305 C.ar        1 UNL1     0.1343
     11 C         -4.289934   -1.495347   6.664291 C.ar        1 UNL1     0.1007
     12 C         -3.605866   -0.357406   6.228489 C.ar        1 UNL1     0.1389
     13 C         -3.202633   -0.235031   4.885411 C.ar        1 UNL1     0.0229
     14 C         -4.617857   -1.611709   8.104111 C.2        1 UNL1     0.1740
     15 C         -3.996769   -0.57806   8.997066 C.3        1 UNL1     0.0520
     16 C         -4.051261   0.76756   8.286929 C.3        1 UNL1     0.1322
     17 O         -3.325631   0.718381   7.038686 O.3        1 UNL1     -0.4828
     18 C         -5.462507   1.349963   8.177778 C.ar        1 UNL1     -0.0067
     19 C         -5.912016   1.848374   6.937721 C.ar        1 UNL1     -0.0516
     20 C         -7.179162   2.430675   6.814311 C.ar        1 UNL1     -0.0198
     21 C         -8.001489   2.526944   7.922614 C.ar        1 UNL1     0.1169
     22 C         -7.600208   2.015044   9.149712 C.ar        1 UNL1     -0.0198
     23 C         -6.340446   1.416067   9.269222 C.ar        1 UNL1     -0.0516
     24 O         -9.213472   3.1344   7.77263 O.3        1 UNL1     -0.5068
     25 O         -5.285   -2.529883   8.573537 O.2        1 UNL1     -0.2917
     26 O         -5.320096   -3.589059   6.094537 O.3        1 UNL1     -0.5058
     27 O         -0.120179   -0.093452   2.554752 O.3        1 UNL1     -0.3648
     28 O         0.404842   -1.94988   -0.494873 O.3        1 UNL1     -0.3841
     29 O         -2.488736   0.142657   -0.179685 O.3        1 UNL1     -0.3863
     30 O         -2.170987   -3.511557   0.034468 O.3        1 UNL1     -0.3829
     31 H         0.839695   -1.70223   1.870308 H        1 UNL1     0.0937
     32 H         0.0   0.0   0.0 H        1 UNL1     0.0671
     33 H         -1.811816   -1.408379   -1.284133 H        1 UNL1     0.0649
     34 H         -3.673325   -2.137377   0.292427 H        1 UNL1     0.0683
     35 H         -2.865614   -3.087323   2.404169 H        1 UNL1     0.1085
     36 H         -4.453237   -3.179508   3.730614 H        1 UNL1     0.0691
     37 H         -2.672186   0.661269   4.571141 H        1 UNL1     0.0691
     38 H         -2.962068   -0.882906   9.186779 H        1 UNL1     0.0385
     39 H         -4.529867   -0.563205   9.953812 H        1 UNL1     0.0385
     40 H         -3.488971   1.481918   8.903405 H        1 UNL1     0.0789
     41 H         -5.281802   1.792943   6.05488 H        1 UNL1     0.0623
     42 H         -7.509633   2.822087   5.855354 H        1 UNL1     0.0654
     43 H         -8.242249   2.07164   10.020626 H        1 UNL1     0.0654
     44 H         -6.063715   1.017302   10.240433 H        1 UNL1     0.0623
     45 H         -9.06362   4.058005   7.51337 H        1 UNL1     0.2921
     46 H         -4.858738   -4.039494   6.819567 H        1 UNL1     0.2922
     47 H         0.55116   0.513298   2.212673 H        1 UNL1     0.2126
     48 H         1.341651   -1.769818   -0.285829 H        1 UNL1     0.2101
     49 H         -2.12725   0.725844   -0.865991 H        1 UNL1     0.2100
     50 H         -2.440881   -3.589893   -0.904006 H        1 UNL1     0.2102
@<TRIPOS>BOND
     1     1     2    1
     2     1     6    1
     3     2     3    1
     4     3     4    1
     5     3    29    1
     6     3    33    1
     7     4     5    1
     8     5     6    1
     9     5     7    1
    10     5    35    1
    11     7     8    1
    12     8     9   ar
    13     8    13   ar
    14     9    10   ar
    15     9    36    1
    16    10    11   ar
    17    10    26    1
    18    11    12   ar
    19    11    14    1
    20    12    13   ar
    21    12    17    1
    22    13    37    1
    23    14    15    1
    24    14    25    2
    25    15    16    1
    26    15    38    1
    27    15    39    1
    28    16    17    1
    29    16    18    1
    30    16    40    1
    31    18    19   ar
    32    18    23   ar
    33    19    20   ar
    34    19    41    1
    35    20    21   ar
    36    20    42    1
    37    21    22   ar
    38    21    24    1
    39    22    23   ar
    40    22    43    1
    41    23    44    1
    42    24    45    1
    43    26    46    1
    44    27    47    1
    45    28    48    1
    46    29    49    1
    47    30    50    1
    48     1    31    1
    49     1    27    1
    50     2    32    1
    51     2    28    1
    52     4    34    1
    53     4    30    1
