@<TRIPOS>MOLECULE
*****
 50 53 0 0 0
SMALL
GASTEIGER

@<TRIPOS>ATOM
     1 C         0.245288   -2.087796   0.593082 C.3        1 UNL1     0.1889
     2 C         0.147949   -0.973601   -0.483502 C.3        1 UNL1     0.1342
     3 C         -0.95738   -1.186982   -1.529056 C.3        1 UNL1     0.1174
     4 C         -1.170975   -2.662925   -1.874143 C.3        1 UNL1     0.1456
     5 C         -1.245112   -3.556881   -0.622859 C.3        1 UNL1     0.2326
     6 O         -0.060058   -3.40355   0.154962 O.3        1 UNL1     -0.3076
     7 O         -2.451029   -3.374563   0.141238 O.3        1 UNL1     -0.4605
     8 C         -3.636818   -3.598982   -0.534831 C.ar        1 UNL1     0.1310
     9 C         -3.942916   -3.122561   -1.814138 C.ar        1 UNL1     0.0226
     10 C         -5.168282   -3.419023   -2.422819 C.ar        1 UNL1     0.1343
     11 C         -6.108627   -4.219742   -1.775948 C.ar        1 UNL1     0.1007
     12 C         -5.831179   -4.66729   -0.481534 C.ar        1 UNL1     0.1389
     13 C         -4.600095   -4.366864   0.131333 C.ar        1 UNL1     0.0229
     14 C         -7.383786   -4.633431   -2.406014 C.2        1 UNL1     0.1740
     15 C         -8.169833   -5.671364   -1.66011 C.3        1 UNL1     0.0520
     16 C         -8.097   -5.354198   -0.172811 C.3        1 UNL1     0.1322
     17 O         -6.72809   -5.370668   0.288581 O.3        1 UNL1     -0.4828
     18 C         -8.887473   -4.107185   0.230719 C.ar        1 UNL1     -0.0067
     19 C         -10.050178   -4.248252   1.01585 C.ar        1 UNL1     -0.0516
     20 C         -10.822432   -3.133198   1.362604 C.ar        1 UNL1     -0.0198
     21 C         -10.447509   -1.875429   0.925251 C.ar        1 UNL1     0.1169
     22 C         -9.289429   -1.700425   0.178884 C.ar        1 UNL1     -0.0198
     23 C         -8.506935   -2.813063   -0.15247 C.ar        1 UNL1     -0.0516
     24 O         -11.244922   -0.817809   1.250787 O.3        1 UNL1     -0.5068
     25 O         -7.757494   -4.229864   -3.504176 O.2        1 UNL1     -0.2917
     26 O         -5.405461   -2.922771   -3.671444 O.3        1 UNL1     -0.5058
     27 O         -0.428378   -1.76812   1.800049 O.3        1 UNL1     -0.3648
     28 O         1.400456   -0.912011   -1.190708 O.3        1 UNL1     -0.3841
     29 O         -2.163585   -0.531084   -1.132825 O.3        1 UNL1     -0.3863
     30 O         -0.08106   -3.117609   -2.705429 O.3        1 UNL1     -0.3829
     31 H         1.300025   -2.152407   0.881933 H        1 UNL1     0.0937
     32 H         -0.0   0.0   0.0 H        1 UNL1     0.0671
     33 H         -0.643738   -0.686138   -2.455611 H        1 UNL1     0.0649
     34 H         -2.090435   -2.781193   -2.458101 H        1 UNL1     0.0683
     35 H         -1.232399   -4.577383   -1.025715 H        1 UNL1     0.1085
     36 H         -3.231908   -2.541956   -2.391619 H        1 UNL1     0.0691
     37 H         -4.408899   -4.726314   1.140161 H        1 UNL1     0.0691
     38 H         -7.721554   -6.646514   -1.878409 H        1 UNL1     0.0385
     39 H         -9.200023   -5.677484   -2.0322 H        1 UNL1     0.0385
     40 H         -8.576207   -6.18692   0.359594 H        1 UNL1     0.0789
     41 H         -10.370726   -5.225893   1.363872 H        1 UNL1     0.0623
     42 H         -11.723402   -3.256408   1.958494 H        1 UNL1     0.0654
     43 H         -8.978435   -0.718089   -0.156093 H        1 UNL1     0.0654
     44 H         -7.60293   -2.638255   -0.72785 H        1 UNL1     0.0623
     45 H         -10.849003   -0.356868   2.008083 H        1 UNL1     0.2921
     46 H         -5.881919   -3.584404   -4.197412 H        1 UNL1     0.2922
     47 H         -1.045425   -1.037196   1.65561 H        1 UNL1     0.2126
     48 H         2.048042   -0.512717   -0.578393 H        1 UNL1     0.2101
     49 H         -2.765082   -1.169282   -0.717255 H        1 UNL1     0.2100
     50 H         -0.147355   -2.657555   -3.567791 H        1 UNL1     0.2102
@<TRIPOS>BOND
     1     1     2    1
     2     1     6    1
     3     2     3    1
     4     3     4    1
     5     3    29    1
     6     3    33    1
     7     4     5    1
     8     5     6    1
     9     5     7    1
    10     5    35    1
    11     7     8    1
    12     8     9   ar
    13     8    13   ar
    14     9    10   ar
    15     9    36    1
    16    10    11   ar
    17    10    26    1
    18    11    12   ar
    19    11    14    1
    20    12    13   ar
    21    12    17    1
    22    13    37    1
    23    14    15    1
    24    14    25    2
    25    15    16    1
    26    15    38    1
    27    15    39    1
    28    16    17    1
    29    16    18    1
    30    16    40    1
    31    18    19   ar
    32    18    23   ar
    33    19    20   ar
    34    19    41    1
    35    20    21   ar
    36    20    42    1
    37    21    22   ar
    38    21    24    1
    39    22    23   ar
    40    22    43    1
    41    23    44    1
    42    24    45    1
    43    26    46    1
    44    27    47    1
    45    28    48    1
    46    29    49    1
    47    30    50    1
    48     1    31    1
    49     1    27    1
    50     2    32    1
    51     2    28    1
    52     4    34    1
    53     4    30    1
