@<TRIPOS>MOLECULE
*****
 50 53 0 0 0
SMALL
GASTEIGER

@<TRIPOS>ATOM
     1 C         1.041669   -1.756922   -0.773923 C.3        1 UNL1     0.1889
     2 C         -0.221743   -0.865323   -0.636874 C.3        1 UNL1     0.1342
     3 C         -1.460324   -1.588567   -0.086147 C.3        1 UNL1     0.1174
     4 C         -1.547949   -3.046969   -0.542768 C.3        1 UNL1     0.1456
     5 C         -0.209707   -3.793491   -0.393841 C.3        1 UNL1     0.2326
     6 O         0.809813   -3.113729   -1.122794 O.3        1 UNL1     -0.3076
     7 O         0.151635   -4.054935   0.974515 O.3        1 UNL1     -0.4605
     8 C         0.880211   -5.209156   1.199191 C.ar        1 UNL1     0.1310
     9 C         0.594585   -6.466372   0.655936 C.ar        1 UNL1     0.0226
     10 C         1.404927   -7.574472   0.930458 C.ar        1 UNL1     0.1343
     11 C         2.5353   -7.446889   1.736572 C.ar        1 UNL1     0.1007
     12 C         2.8076   -6.205645   2.317905 C.ar        1 UNL1     0.1389
     13 C         1.991154   -5.092209   2.043849 C.ar        1 UNL1     0.0229
     14 C         3.472917   -8.564927   1.991563 C.2        1 UNL1     0.1740
     15 C         4.747446   -8.196418   2.69251 C.3        1 UNL1     0.0520
     16 C         4.423062   -7.181781   3.78028 C.3        1 UNL1     0.1322
     17 O         3.830824   -5.992774   3.212313 O.3        1 UNL1     -0.4828
     18 C         3.651365   -7.771935   4.963042 C.ar        1 UNL1     -0.0067
     19 C         2.499633   -7.111162   5.437496 C.ar        1 UNL1     -0.0516
     20 C         1.797881   -7.597987   6.546779 C.ar        1 UNL1     -0.0198
     21 C         2.240921   -8.737932   7.19336 C.ar        1 UNL1     0.1169
     22 C         3.352397   -9.42945   6.729398 C.ar        1 UNL1     -0.0198
     23 C         4.043614   -8.953191   5.608928 C.ar        1 UNL1     -0.0516
     24 O         1.553898   -9.160926   8.293122 O.3        1 UNL1     -0.5068
     25 O         3.281581   -9.711556   1.595183 O.2        1 UNL1     -0.2917
     26 O         1.070911   -8.772896   0.370281 O.3        1 UNL1     -0.5058
     27 O         1.935392   -1.643313   0.322041 O.3        1 UNL1     -0.3648
     28 O         -0.565713   -0.358316   -1.939692 O.3        1 UNL1     -0.3841
     29 O         -1.540416   -1.447402   1.333638 O.3        1 UNL1     -0.3863
     30 O         -1.94925   -3.085889   -1.929539 O.3        1 UNL1     -0.3829
     31 H         1.608941   -1.366781   -1.626021 H        1 UNL1     0.0937
     32 H         0.0   0.0   0.0 H        1 UNL1     0.0671
     33 H         -2.34989   -1.078006   -0.480759 H        1 UNL1     0.0649
     34 H         -2.320697   -3.572214   0.029403 H        1 UNL1     0.0683
     35 H         -0.38223   -4.749901   -0.90315 H        1 UNL1     0.1085
     36 H         -0.237376   -6.618571   -0.022885 H        1 UNL1     0.0691
     37 H         2.223984   -4.137107   2.50975 H        1 UNL1     0.0691
     38 H         5.425429   -7.770894   1.944983 H        1 UNL1     0.0385
     39 H         5.20988   -9.103317   3.096821 H        1 UNL1     0.0385
     40 H         5.379057   -6.839218   4.198901 H        1 UNL1     0.0789
     41 H         2.136822   -6.20936   4.952963 H        1 UNL1     0.0623
     42 H         0.918072   -7.072833   6.91032 H        1 UNL1     0.0654
     43 H         3.699189   -10.331579   7.219101 H        1 UNL1     0.0654
     44 H         4.901467   -9.524432   5.267436 H        1 UNL1     0.0623
     45 H         1.583866   -8.458236   8.962484 H        1 UNL1     0.2921
     46 H         1.819505   -9.107359   -0.14852 H        1 UNL1     0.2922
     47 H         2.192066   -0.719459   0.450381 H        1 UNL1     0.2126
     48 H         0.193133   0.177791   -2.240483 H        1 UNL1     0.2101
     49 H         -1.747092   -0.527277   1.562655 H        1 UNL1     0.2100
     50 H         -2.861761   -2.734518   -1.98933 H        1 UNL1     0.2102
@<TRIPOS>BOND
     1     1     2    1
     2     1     6    1
     3     2     3    1
     4     3     4    1
     5     3    29    1
     6     3    33    1
     7     4     5    1
     8     5     6    1
     9     5     7    1
    10     5    35    1
    11     7     8    1
    12     8     9   ar
    13     8    13   ar
    14     9    10   ar
    15     9    36    1
    16    10    11   ar
    17    10    26    1
    18    11    12   ar
    19    11    14    1
    20    12    13   ar
    21    12    17    1
    22    13    37    1
    23    14    15    1
    24    14    25    2
    25    15    16    1
    26    15    38    1
    27    15    39    1
    28    16    17    1
    29    16    18    1
    30    16    40    1
    31    18    19   ar
    32    18    23   ar
    33    19    20   ar
    34    19    41    1
    35    20    21   ar
    36    20    42    1
    37    21    22   ar
    38    21    24    1
    39    22    23   ar
    40    22    43    1
    41    23    44    1
    42    24    45    1
    43    26    46    1
    44    27    47    1
    45    28    48    1
    46    29    49    1
    47    30    50    1
    48     1    31    1
    49     1    27    1
    50     2    32    1
    51     2    28    1
    52     4    34    1
    53     4    30    1
