@<TRIPOS>MOLECULE
*****
 50 53 0 0 0
SMALL
GASTEIGER

@<TRIPOS>ATOM
     1 C         -1.023261   0.45797   -1.874568 C.3        1 UNL1     0.1889
     2 C         -0.507317   0.854334   -0.465087 C.3        1 UNL1     0.1342
     3 C         -1.591013   1.375016   0.491447 C.3        1 UNL1     0.1174
     4 C         -2.678401   2.179505   -0.225143 C.3        1 UNL1     0.1456
     5 C         -3.18416   1.482254   -1.501236 C.3        1 UNL1     0.2326
     6 O         -2.093528   1.238206   -2.386579 O.3        1 UNL1     -0.3076
     7 O         -3.97329   0.307748   -1.238314 O.3        1 UNL1     -0.4605
     8 C         -3.620277   -0.421244   -0.11694 C.ar        1 UNL1     0.1310
     9 C         -4.221901   -1.614866   0.296117 C.ar        1 UNL1     0.0226
     10 C         -3.780387   -2.289673   1.440496 C.ar        1 UNL1     0.1343
     11 C         -2.709834   -1.799195   2.186948 C.ar        1 UNL1     0.1007
     12 C         -2.127749   -0.586698   1.807723 C.ar        1 UNL1     0.1389
     13 C         -2.573599   0.092997   0.658522 C.ar        1 UNL1     0.0229
     14 C         -2.148313   -2.51485   3.356001 C.2        1 UNL1     0.1740
     15 C         -0.864756   -1.960981   3.901215 C.3        1 UNL1     0.0520
     16 C         -0.947725   -0.440932   3.878326 C.3        1 UNL1     0.1322
     17 O         -1.14038   0.041862   2.530415 O.3        1 UNL1     -0.4828
     18 C         -1.923713   0.138415   4.905228 C.ar        1 UNL1     -0.0067
     19 C         -1.434211   0.589218   6.14836 C.ar        1 UNL1     -0.0516
     20 C         -2.30536   1.08059   7.12796 C.ar        1 UNL1     -0.0198
     21 C         -3.66581   1.119387   6.879973 C.ar        1 UNL1     0.1169
     22 C         -4.17461   0.713772   5.65301 C.ar        1 UNL1     -0.0198
     23 C         -3.301797   0.239599   4.666393 C.ar        1 UNL1     -0.0516
     24 O         -4.48717   1.568885   7.871799 O.3        1 UNL1     -0.5068
     25 O         -2.63665   -3.54275   3.81799 O.2        1 UNL1     -0.2917
     26 O         -4.41046   -3.448344   1.789884 O.3        1 UNL1     -0.5058
     27 O         -1.274162   -0.931345   -2.014706 O.3        1 UNL1     -0.3648
     28 O         0.470456   1.900398   -0.614805 O.3        1 UNL1     -0.3841
     29 O         -2.121562   0.310859   1.284051 O.3        1 UNL1     -0.3863
     30 O         -2.150936   3.475578   -0.582442 O.3        1 UNL1     -0.3829
     31 H         -0.204245   0.656033   -2.574613 H        1 UNL1     0.0937
     32 H         0.0   0.0   0.0 H        1 UNL1     0.0671
     33 H         -1.108695   2.057734   1.20488 H        1 UNL1     0.0649
     34 H         -3.52272   2.352436   0.451335 H        1 UNL1     0.0683
     35 H         -3.821061   2.236533   -1.980087 H        1 UNL1     0.1085
     36 H         -5.021549   -2.076898   -0.272399 H        1 UNL1     0.0691
     37 H         -2.104499   1.035739   0.385255 H        1 UNL1     0.0691
     38 H         -0.050919   -2.321753   3.263218 H        1 UNL1     0.0385
     39 H         -0.705882   -2.351799   4.912055 H        1 UNL1     0.0385
     40 H         0.040238   -0.058417   4.168381 H        1 UNL1     0.0789
     41 H         -0.371511   0.560573   6.370844 H        1 UNL1     0.0623
     42 H         -1.916901   1.414164   8.087042 H        1 UNL1     0.0654
     43 H         -5.23672   0.753993   5.442736 H        1 UNL1     0.0654
     44 H         -3.732723   -0.059052   3.715627 H        1 UNL1     0.0623
     45 H         -5.320181   1.071921   7.828948 H        1 UNL1     0.2921
     46 H         -5.317182   -3.250816   2.073166 H        1 UNL1     0.2922
     47 H         -1.950252   -1.083055   -2.689796 H        1 UNL1     0.2126
     48 H         1.172078   1.723382   0.041033 H        1 UNL1     0.2101
     49 H         -3.080624   0.420348   1.384079 H        1 UNL1     0.2100
     50 H         -1.173523   3.410488   -0.59432 H        1 UNL1     0.2102
@<TRIPOS>BOND
     1     1     2    1
     2     1     6    1
     3     2     3    1
     4     3     4    1
     5     3    29    1
     6     3    33    1
     7     4     5    1
     8     5     6    1
     9     5     7    1
    10     5    35    1
    11     7     8    1
    12     8     9   ar
    13     8    13   ar
    14     9    10   ar
    15     9    36    1
    16    10    11   ar
    17    10    26    1
    18    11    12   ar
    19    11    14    1
    20    12    13   ar
    21    12    17    1
    22    13    37    1
    23    14    15    1
    24    14    25    2
    25    15    16    1
    26    15    38    1
    27    15    39    1
    28    16    17    1
    29    16    18    1
    30    16    40    1
    31    18    19   ar
    32    18    23   ar
    33    19    20   ar
    34    19    41    1
    35    20    21   ar
    36    20    42    1
    37    21    22   ar
    38    21    24    1
    39    22    23   ar
    40    22    43    1
    41    23    44    1
    42    24    45    1
    43    26    46    1
    44    27    47    1
    45    28    48    1
    46    29    49    1
    47    30    50    1
    48     1    31    1
    49     1    27    1
    50     2    32    1
    51     2    28    1
    52     4    34    1
    53     4    30    1
