@<TRIPOS>MOLECULE
*****
 50 53 0 0 0
SMALL
GASTEIGER

@<TRIPOS>ATOM
     1 C         -1.574923   -0.613136   1.38365 C.3        1 UNL1     0.1889
     2 C         -0.666284   0.46634   0.736312 C.3        1 UNL1     0.1342
     3 C         0.176952   1.276382   1.732931 C.3        1 UNL1     0.1174
     4 C         -0.544979   1.520195   3.060518 C.3        1 UNL1     0.1456
     5 C         -1.205053   0.245125   3.616272 C.3        1 UNL1     0.2326
     6 O         -2.114173   -0.289371   2.656748 O.3        1 UNL1     -0.3076
     7 O         -0.259277   -0.725134   4.101478 O.3        1 UNL1     -0.4605
     8 C         -0.680607   -1.503362   5.164667 C.ar        1 UNL1     0.1310
     9 C         -1.0358   -1.023106   6.429772 C.ar        1 UNL1     0.0226
     10 C         -1.467665   -1.892175   7.438789 C.ar        1 UNL1     0.1343
     11 C         -1.577643   -3.261294   7.199502 C.ar        1 UNL1     0.1007
     12 C         -1.186721   -3.757611   5.953054 C.ar        1 UNL1     0.1389
     13 C         -0.750001   -2.883872   4.939503 C.ar        1 UNL1     0.0229
     14 C         -2.107684   -4.214035   8.202246 C.2        1 UNL1     0.1740
     15 C         -2.365507   -5.605408   7.703088 C.3        1 UNL1     0.0520
     16 C         -1.229286   -6.000793   6.770014 C.3        1 UNL1     0.1322
     17 O         -1.151844   -5.097813   5.64498 O.3        1 UNL1     -0.4828
     18 C         0.102437   -6.237254   7.486481 C.ar        1 UNL1     -0.0067
     19 C         0.295606   -7.430028   8.213247 C.ar        1 UNL1     -0.0516
     20 C         1.483246   -7.656856   8.918955 C.ar        1 UNL1     -0.0198
     21 C         2.480101   -6.69766   8.911811 C.ar        1 UNL1     0.1169
     22 C         2.332865   -5.527656   8.178154 C.ar        1 UNL1     -0.0198
     23 C         1.152815   -5.308681   7.457329 C.ar        1 UNL1     -0.0516
     24 O         3.60733   -6.936998   9.641517 O.3        1 UNL1     -0.5068
     25 O         -2.401593   -3.892948   9.350725 O.2        1 UNL1     -0.2917
     26 O         -1.79823   -1.360205   8.650944 O.3        1 UNL1     -0.5058
     27 O         -1.005934   -1.912705   1.370982 O.3        1 UNL1     -0.3648
     28 O         -1.501406   1.398567   0.024814 O.3        1 UNL1     -0.3841
     29 O         1.466322   0.684625   1.904635 O.3        1 UNL1     -0.3863
     30 O         -1.564769   2.524466   2.867748 O.3        1 UNL1     -0.3829
     31 H         -2.46072   -0.700364   0.745031 H        1 UNL1     0.0937
     32 H         0.0   0.0   0.0 H        1 UNL1     0.0671
     33 H         0.365796   2.263318   1.287941 H        1 UNL1     0.0649
     34 H         0.158414   1.915751   3.801581 H        1 UNL1     0.0683
     35 H         -1.807018   0.605112   4.460029 H        1 UNL1     0.1085
     36 H         -1.025452   0.036385   6.661055 H        1 UNL1     0.0691
     37 H         -0.450254   -3.295474   3.978135 H        1 UNL1     0.0691
     38 H         -3.32493   -5.595313   7.174946 H        1 UNL1     0.0385
     39 H         -2.453331   -6.283278   8.558984 H        1 UNL1     0.0385
     40 H         -1.496739   -6.969507   6.326638 H        1 UNL1     0.0789
     41 H         -0.475367   -8.194502   8.242063 H        1 UNL1     0.0623
     42 H         1.615419   -8.575426   9.485322 H        1 UNL1     0.0654
     43 H         3.11329   -4.776499   8.153434 H        1 UNL1     0.0654
     44 H         1.076048   -4.38823   6.886608 H        1 UNL1     0.0623
     45 H         4.280182   -7.314004   9.051726 H        1 UNL1     0.2921
     46 H         -2.16583   -2.054992   9.219762 H        1 UNL1     0.2922
     47 H         -0.986953   -2.261112   0.4687 H        1 UNL1     0.2126
     48 H         -0.915647   2.11209   -0.293782 H        1 UNL1     0.2101
     49 H         1.394614   -0.107021   2.461365 H        1 UNL1     0.2100
     50 H         -1.211767   3.19794   2.250063 H        1 UNL1     0.2102
@<TRIPOS>BOND
     1     1     2    1
     2     1     6    1
     3     2     3    1
     4     3     4    1
     5     3    29    1
     6     3    33    1
     7     4     5    1
     8     5     6    1
     9     5     7    1
    10     5    35    1
    11     7     8    1
    12     8     9   ar
    13     8    13   ar
    14     9    10   ar
    15     9    36    1
    16    10    11   ar
    17    10    26    1
    18    11    12   ar
    19    11    14    1
    20    12    13   ar
    21    12    17    1
    22    13    37    1
    23    14    15    1
    24    14    25    2
    25    15    16    1
    26    15    38    1
    27    15    39    1
    28    16    17    1
    29    16    18    1
    30    16    40    1
    31    18    19   ar
    32    18    23   ar
    33    19    20   ar
    34    19    41    1
    35    20    21   ar
    36    20    42    1
    37    21    22   ar
    38    21    24    1
    39    22    23   ar
    40    22    43    1
    41    23    44    1
    42    24    45    1
    43    26    46    1
    44    27    47    1
    45    28    48    1
    46    29    49    1
    47    30    50    1
    48     1    31    1
    49     1    27    1
    50     2    32    1
    51     2    28    1
    52     4    34    1
    53     4    30    1
