@<TRIPOS>MOLECULE
*****
 50 53 0 0 0
SMALL
GASTEIGER

@<TRIPOS>ATOM
     1 C         0.32622   -0.618422   2.069285 C.3        1 UNL1     0.1889
     2 C         0.02158   -0.931239   0.57956 C.3        1 UNL1     0.1342
     3 C         -1.286539   -1.700719   0.340416 C.3        1 UNL1     0.1174
     4 C         -1.598045   -2.70257   1.455036 C.3        1 UNL1     0.1456
     5 C         -1.419008   -2.097573   2.859417 C.3        1 UNL1     0.2326
     6 O         -0.091742   -1.598433   3.008051 O.3        1 UNL1     -0.3076
     7 O         -2.428782   -1.130202   3.199817 O.3        1 UNL1     -0.4605
     8 C         -2.763657   -1.049284   4.539533 C.ar        1 UNL1     0.1310
     9 C         -3.012166   -2.139779   5.379988 C.ar        1 UNL1     0.0226
     10 C         -3.328397   -1.95485   6.731173 C.ar        1 UNL1     0.1343
     11 C         -3.380469   -0.674613   7.280831 C.ar        1 UNL1     0.1007
     12 C         -3.174544   0.424012   6.442141 C.ar        1 UNL1     0.1389
     13 C         -2.859193   0.237911   5.082968 C.ar        1 UNL1     0.0229
     14 C         -3.627247   -0.425548   8.720005 C.2        1 UNL1     0.1740
     15 C         -3.427881   0.98953   9.17756 C.3        1 UNL1     0.0520
     16 C         -3.987317   1.923386   8.113181 C.3        1 UNL1     0.1322
     17 O         -3.307936   1.730032   6.852972 O.3        1 UNL1     -0.4828
     18 C         -5.514945   1.906033   8.019508 C.ar        1 UNL1     -0.0067
     19 C         -6.129915   1.767544   6.758221 C.ar        1 UNL1     -0.0516
     20 C         -7.523906   1.795331   6.631811 C.ar        1 UNL1     -0.0198
     21 C         -8.31197   1.967994   7.75563 C.ar        1 UNL1     0.1169
     22 C         -7.736868   2.073558   9.015372 C.ar        1 UNL1     -0.0198
     23 C         -6.343562   2.0273   9.144268 C.ar        1 UNL1     -0.0516
     24 O         -9.66439   2.02798   7.589007 O.3        1 UNL1     -0.5068
     25 O         -3.89912   -1.314182   9.523061 O.2        1 UNL1     -0.2917
     26 O         -3.560778   -3.060059   7.496742 O.3        1 UNL1     -0.5058
     27 O         -0.065998   0.686437   2.464626 O.3        1 UNL1     -0.3648
     28 O         1.093829   -1.735358   0.053839 O.3        1 UNL1     -0.3841
     29 O         -2.366401   -0.79918   0.088906 O.3        1 UNL1     -0.3863
     30 O         -0.721292   -3.842865   1.325721 O.3        1 UNL1     -0.3829
     31 H         1.416921   -0.614712   2.171449 H        1 UNL1     0.0937
     32 H         -0.0   0.0   0.0 H        1 UNL1     0.0671
     33 H         -1.169606   -2.281381   -0.585261 H        1 UNL1     0.0649
     34 H         -2.623634   -3.073129   1.34894 H        1 UNL1     0.0683
     35 H         -1.513065   -2.958976   3.532482 H        1 UNL1     0.1085
     36 H         -2.932376   -3.161938   5.026511 H        1 UNL1     0.0691
     37 H         -2.704468   1.109702   4.450881 H        1 UNL1     0.0691
     38 H         -2.35235   1.145146   9.313737 H        1 UNL1     0.0385
     39 H         -3.918677   1.125732   10.147275 H        1 UNL1     0.0385
     40 H         -3.726096   2.947712   8.411576 H        1 UNL1     0.0789
     41 H         -5.533119   1.63998   5.859771 H        1 UNL1     0.0623
     42 H         -7.98579   1.699423   5.652282 H        1 UNL1     0.0654
     43 H         -8.345191   2.19401   9.903823 H        1 UNL1     0.0654
     44 H         -5.928695   2.102248   10.144824 H        1 UNL1     0.0623
     45 H         -9.869324   2.782645   7.013508 H        1 UNL1     0.2921
     46 H         -2.956701   -3.060514   8.25602 H        1 UNL1     0.2922
     47 H         0.348914   1.348135   1.893782 H        1 UNL1     0.2126
     48 H         1.906736   -1.198885   0.12533 H        1 UNL1     0.2101
     49 H         -2.244308   -0.370298   -0.773038 H        1 UNL1     0.2100
     50 H         -0.943525   -4.300665   0.488616 H        1 UNL1     0.2102
@<TRIPOS>BOND
     1     1     2    1
     2     1     6    1
     3     2     3    1
     4     3     4    1
     5     3    29    1
     6     3    33    1
     7     4     5    1
     8     5     6    1
     9     5     7    1
    10     5    35    1
    11     7     8    1
    12     8     9   ar
    13     8    13   ar
    14     9    10   ar
    15     9    36    1
    16    10    11   ar
    17    10    26    1
    18    11    12   ar
    19    11    14    1
    20    12    13   ar
    21    12    17    1
    22    13    37    1
    23    14    15    1
    24    14    25    2
    25    15    16    1
    26    15    38    1
    27    15    39    1
    28    16    17    1
    29    16    18    1
    30    16    40    1
    31    18    19   ar
    32    18    23   ar
    33    19    20   ar
    34    19    41    1
    35    20    21   ar
    36    20    42    1
    37    21    22   ar
    38    21    24    1
    39    22    23   ar
    40    22    43    1
    41    23    44    1
    42    24    45    1
    43    26    46    1
    44    27    47    1
    45    28    48    1
    46    29    49    1
    47    30    50    1
    48     1    31    1
    49     1    27    1
    50     2    32    1
    51     2    28    1
    52     4    34    1
    53     4    30    1
