@<TRIPOS>MOLECULE
*****
 50 53 0 0 0
SMALL
GASTEIGER

@<TRIPOS>ATOM
     1 C         -0.304507   -1.375806   1.668903 C.3        1 UNL1     0.1889
     2 C         -0.460819   -0.979915   0.175994 C.3        1 UNL1     0.1342
     3 C         -1.910801   -0.950123   -0.331087 C.3        1 UNL1     0.1174
     4 C         -2.78738   -2.026492   0.314014 C.3        1 UNL1     0.1456
     5 C         -2.608838   -2.095691   1.841658 C.3        1 UNL1     0.2326
     6 O         -1.238413   -2.325601   2.160946 O.3        1 UNL1     -0.3076
     7 O         -3.169964   -0.966866   2.536073 O.3        1 UNL1     -0.4605
     8 C         -3.664757   -1.21927   3.802959 C.ar        1 UNL1     0.1310
     9 C         -4.481504   -2.299701   4.153523 C.ar        1 UNL1     0.0226
     10 C         -4.918566   -2.478856   5.471393 C.ar        1 UNL1     0.1343
     11 C         -4.529544   -1.594245   6.476363 C.ar        1 UNL1     0.1007
     12 C         -3.74782   -0.488688   6.130768 C.ar        1 UNL1     0.1389
     13 C         -3.310665   -0.307307   4.805088 C.ar        1 UNL1     0.0229
     14 C         -4.892995   -1.78248   7.899959 C.2        1 UNL1     0.1740
     15 C         -4.207614   -0.867154   8.871546 C.3        1 UNL1     0.0520
     16 C         -4.139972   0.524199   8.257121 C.3        1 UNL1     0.1322
     17 O         -3.397155   0.50211   7.018248 O.3        1 UNL1     -0.4828
     18 C         -5.497344   1.226166   8.170473 C.ar        1 UNL1     -0.0067
     19 C         -5.881632   1.844031   6.962674 C.ar        1 UNL1     -0.0516
     20 C         -7.095137   2.5351   6.863709 C.ar        1 UNL1     -0.0198
     21 C         -7.927871   2.621571   7.965028 C.ar        1 UNL1     0.1169
     22 C         -7.592486   1.99513   9.158312 C.ar        1 UNL1     -0.0198
     23 C         -6.38761   1.288354   9.252117 C.ar        1 UNL1     -0.0516
     24 O         -9.08387   3.334974   7.842057 O.3        1 UNL1     -0.5068
     25 O         -5.640769   -2.673234   8.29477 O.2        1 UNL1     -0.2917
     26 O         -5.714187   -3.552407   5.747184 O.3        1 UNL1     -0.5058
     27 O         -0.182191   -0.262145   2.539295 O.3        1 UNL1     -0.3648
     28 O         0.254248   -1.937268   -0.627038 O.3        1 UNL1     -0.3841
     29 O         -2.464254   0.361594   -0.20772 O.3        1 UNL1     -0.3863
     30 O         -2.451626   -3.312376   -0.251195 O.3        1 UNL1     -0.3829
     31 H         0.657107   -1.893242   1.756295 H        1 UNL1     0.0937
     32 H         0.0   0.0   0.0 H        1 UNL1     0.0671
     33 H         -1.893156   -1.159081   -1.409858 H        1 UNL1     0.0649
     34 H         -3.841513   -1.8394   0.081204 H        1 UNL1     0.0683
     35 H         -3.159818   -2.999108   2.131721 H        1 UNL1     0.1085
     36 H         -4.772507   -3.052962   3.42962 H        1 UNL1     0.0691
     37 H         -2.70382   0.562168   4.561684 H        1 UNL1     0.0691
     38 H         -3.204641   -1.267931   9.053069 H        1 UNL1     0.0385
     39 H         -4.755805   -0.874819   9.81981 H        1 UNL1     0.0385
     40 H         -3.533693   1.14595   8.929707 H        1 UNL1     0.0789
     41 H         -5.24133   1.798313   6.086562 H        1 UNL1     0.0623
     42 H         -7.374749   3.017452   5.930346 H        1 UNL1     0.0654
     43 H         -8.244254   2.043797   10.022453 H        1 UNL1     0.0654
     44 H         -6.162378   0.802238   10.196472 H        1 UNL1     0.0623
     45 H         -8.855153   4.258916   7.650392 H        1 UNL1     0.2921
     46 H         -5.304466   -4.088004   6.444807 H        1 UNL1     0.2922
     47 H         0.550798   0.303322   2.258518 H        1 UNL1     0.2126
     48 H         1.19796   -1.85093   -0.391062 H        1 UNL1     0.2101
     49 H         -2.041569   0.959376   -0.844735 H        1 UNL1     0.2100
     50 H         -2.706843   -3.301932   -1.196958 H        1 UNL1     0.2102
@<TRIPOS>BOND
     1     1     2    1
     2     1     6    1
     3     2     3    1
     4     3     4    1
     5     3    29    1
     6     3    33    1
     7     4     5    1
     8     5     6    1
     9     5     7    1
    10     5    35    1
    11     7     8    1
    12     8     9   ar
    13     8    13   ar
    14     9    10   ar
    15     9    36    1
    16    10    11   ar
    17    10    26    1
    18    11    12   ar
    19    11    14    1
    20    12    13   ar
    21    12    17    1
    22    13    37    1
    23    14    15    1
    24    14    25    2
    25    15    16    1
    26    15    38    1
    27    15    39    1
    28    16    17    1
    29    16    18    1
    30    16    40    1
    31    18    19   ar
    32    18    23   ar
    33    19    20   ar
    34    19    41    1
    35    20    21   ar
    36    20    42    1
    37    21    22   ar
    38    21    24    1
    39    22    23   ar
    40    22    43    1
    41    23    44    1
    42    24    45    1
    43    26    46    1
    44    27    47    1
    45    28    48    1
    46    29    49    1
    47    30    50    1
    48     1    31    1
    49     1    27    1
    50     2    32    1
    51     2    28    1
    52     4    34    1
    53     4    30    1
