@<TRIPOS>MOLECULE
*****
 50 53 0 0 0
SMALL
GASTEIGER

@<TRIPOS>ATOM
     1 C         1.272737   -1.263513   1.246788 C.3        1 UNL1     0.1889
     2 C         0.074651   -0.295354   1.053924 C.3        1 UNL1     0.1342
     3 C         0.124609   0.968435   1.926167 C.3        1 UNL1     0.1174
     4 C         0.743406   0.715127   3.303136 C.3        1 UNL1     0.1456
     5 C         2.046545   -0.100872   3.223529 C.3        1 UNL1     0.2326
     6 O         1.804384   -1.340086   2.561278 O.3        1 UNL1     -0.3076
     7 O         3.149756   0.634092   2.663105 O.3        1 UNL1     -0.4605
     8 C         4.330873   -0.069276   2.508948 C.ar        1 UNL1     0.1310
     9 C         4.512602   -1.423591   2.809125 C.ar        1 UNL1     0.0226
     10 C         5.74645   -2.051654   2.601617 C.ar        1 UNL1     0.1343
     11 C         6.822858   -1.345743   2.066009 C.ar        1 UNL1     0.1007
     12 C         6.665453   0.017204   1.80071 C.ar        1 UNL1     0.1389
     13 C         5.425494   0.649121   2.011925 C.ar        1 UNL1     0.0229
     14 C         8.123366   -1.979562   1.748037 C.2        1 UNL1     0.1740
     15 C         9.088027   -1.12952   0.97447 C.3        1 UNL1     0.0520
     16 C         9.020311   0.291439   1.516916 C.3        1 UNL1     0.1322
     17 O         7.688254   0.832009   1.373817 O.3        1 UNL1     -0.4828
     18 C         9.620695   0.446022   2.916332 C.ar        1 UNL1     -0.0067
     19 C         10.988086   0.167087   3.117956 C.ar        1 UNL1     -0.0516
     20 C         11.558131   0.252604   4.393769 C.ar        1 UNL1     -0.0198
     21 C         10.771548   0.608043   5.474869 C.ar        1 UNL1     0.1169
     22 C         9.429494   0.921191   5.302628 C.ar        1 UNL1     -0.0198
     23 C         8.863431   0.853664   4.02393 C.ar        1 UNL1     -0.0516
     24 O         11.35289   0.644053   6.708216 O.3        1 UNL1     -0.5068
     25 O         8.389726   -3.148006   2.016878 O.2        1 UNL1     -0.2917
     26 O         5.858162   -3.374641   2.915961 O.3        1 UNL1     -0.5058
     27 O         2.295094   -1.098025   0.277156 O.3        1 UNL1     -0.3648
     28 O         -1.137373   -0.997642   1.386333 O.3        1 UNL1     -0.3841
     29 O         0.75405   2.043344   1.225806 O.3        1 UNL1     -0.3863
     30 O         -0.204082   -0.00241   4.123561 O.3        1 UNL1     -0.3829
     31 H         0.890552   -2.2741   1.065885 H        1 UNL1     0.0937
     32 H         0.0   0.0   0.0 H        1 UNL1     0.0671
     33 H         -0.909485   1.298214   2.098257 H        1 UNL1     0.0649
     34 H         0.943795   1.66862   3.804231 H        1 UNL1     0.0683
     35 H         2.274607   -0.337865   4.270286 H        1 UNL1     0.1085
     36 H         3.699399   -2.040571   3.175398 H        1 UNL1     0.0691
     37 H         5.329193   1.711506   1.798486 H        1 UNL1     0.0691
     38 H         8.789711   -1.164844   -0.078757 H        1 UNL1     0.0385
     39 H         10.092472   -1.557945   1.060026 H        1 UNL1     0.0385
     40 H         9.642389   0.917529   0.863041 H        1 UNL1     0.0789
     41 H         11.624688   -0.122913   2.28712 H        1 UNL1     0.0623
     42 H         12.611044   0.023491   4.538308 H        1 UNL1     0.0654
     43 H         8.807899   1.215263   6.139917 H        1 UNL1     0.0654
     44 H         7.814408   1.115334   3.924303 H        1 UNL1     0.0623
     45 H         12.110064   1.250805   6.672776 H        1 UNL1     0.2921
     46 H         5.099002   -3.64386   3.456894 H        1 UNL1     0.2922
     47 H         1.91422   -1.084504   -0.612008 H        1 UNL1     0.2126
     48 H         -0.956229   -1.947694   1.250976 H        1 UNL1     0.2101
     49 H         1.339915   2.530572   1.826775 H        1 UNL1     0.2100
     50 H         0.07817   -0.939792   4.160441 H        1 UNL1     0.2102
@<TRIPOS>BOND
     1     1     2    1
     2     1     6    1
     3     2     3    1
     4     3     4    1
     5     3    29    1
     6     3    33    1
     7     4     5    1
     8     5     6    1
     9     5     7    1
    10     5    35    1
    11     7     8    1
    12     8     9   ar
    13     8    13   ar
    14     9    10   ar
    15     9    36    1
    16    10    11   ar
    17    10    26    1
    18    11    12   ar
    19    11    14    1
    20    12    13   ar
    21    12    17    1
    22    13    37    1
    23    14    15    1
    24    14    25    2
    25    15    16    1
    26    15    38    1
    27    15    39    1
    28    16    17    1
    29    16    18    1
    30    16    40    1
    31    18    19   ar
    32    18    23   ar
    33    19    20   ar
    34    19    41    1
    35    20    21   ar
    36    20    42    1
    37    21    22   ar
    38    21    24    1
    39    22    23   ar
    40    22    43    1
    41    23    44    1
    42    24    45    1
    43    26    46    1
    44    27    47    1
    45    28    48    1
    46    29    49    1
    47    30    50    1
    48     1    31    1
    49     1    27    1
    50     2    32    1
    51     2    28    1
    52     4    34    1
    53     4    30    1
