@<TRIPOS>MOLECULE
*****
 50 53 0 0 0
SMALL
GASTEIGER

@<TRIPOS>ATOM
     1 C         -0.036528   -1.16647   1.846299 C.3        1 UNL1     0.1889
     2 C         -0.288279   -1.008143   0.322654 C.3        1 UNL1     0.1342
     3 C         -1.733724   -1.281889   -0.12031 C.3        1 UNL1     0.1174
     4 C         -2.405874   -2.387414   0.697704 C.3        1 UNL1     0.1456
     5 C         -2.185564   -2.218092   2.212021 C.3        1 UNL1     0.2326
     6 O         -0.789449   -2.178372   2.498647 O.3        1 UNL1     -0.3076
     7 O         -2.910843   -1.11054   2.776484 O.3        1 UNL1     -0.4605
     8 C         -3.731345   -0.416292   1.905666 C.ar        1 UNL1     0.1310
     9 C         -3.371644   0.735639   1.197872 C.ar        1 UNL1     0.0226
     10 C         -4.270684   1.358339   0.323874 C.ar        1 UNL1     0.1343
     11 C         -5.544423   0.830012   0.118202 C.ar        1 UNL1     0.1007
     12 C         -5.929342   -0.296322   0.850318 C.ar        1 UNL1     0.1389
     13 C         -5.026092   -0.92073   1.731047 C.ar        1 UNL1     0.0229
     14 C         -6.504474   1.398698   -0.855991 C.2        1 UNL1     0.1740
     15 C         -7.734506   0.577771   -1.110258 C.3        1 UNL1     0.0520
     16 C         -8.211799   0.001597   0.215703 C.3        1 UNL1     0.1322
     17 O         -7.193937   -0.835938   0.806941 O.3        1 UNL1     -0.4828
     18 C         -8.803177   1.046915   1.164548 C.ar        1 UNL1     -0.0067
     19 C         -8.008894   1.561572   2.209754 C.ar        1 UNL1     -0.0516
     20 C         -8.533555   2.4832   3.1237 C.ar        1 UNL1     -0.0198
     21 C         -9.85024   2.891551   3.007861 C.ar        1 UNL1     0.1169
     22 C         -10.647455   2.428103   1.969351 C.ar        1 UNL1     -0.0198
     23 C         -10.117564   1.520555   1.04435 C.ar        1 UNL1     -0.0516
     24 O         -10.337517   3.761249   3.938767 O.3        1 UNL1     -0.5068
     25 O         -6.295055   2.430852   -1.487881 O.2        1 UNL1     -0.2917
     26 O         -3.858264   2.479435   -0.335398 O.3        1 UNL1     -0.5058
     27 O         -0.081671   0.060426   2.557266 O.3        1 UNL1     -0.3648
     28 O         0.558048   -1.93807   -0.378539 O.3        1 UNL1     -0.3841
     29 O         -2.493995   -0.072147   -0.145709 O.3        1 UNL1     -0.3863
     30 O         -1.874014   -3.667213   0.291589 O.3        1 UNL1     -0.3829
     31 H         0.999154   -1.505305   1.958692 H        1 UNL1     0.0937
     32 H         0.0   0.0   0.0 H        1 UNL1     0.0671
     33 H         -1.704894   -1.6303   -1.162182 H        1 UNL1     0.0649
     34 H         -3.481189   -2.40621   0.488554 H        1 UNL1     0.0683
     35 H         -2.572956   -3.150453   2.641567 H        1 UNL1     0.1085
     36 H         -2.377676   1.163091   1.27159 H        1 UNL1     0.0691
     37 H         -5.350577   -1.795733   2.290129 H        1 UNL1     0.0691
     38 H         -7.462318   -0.218165   -1.811633 H        1 UNL1     0.0385
     39 H         -8.494354   1.207438   -1.585577 H        1 UNL1     0.0385
     40 H         -9.03752   -0.687012   -0.009068 H        1 UNL1     0.0789
     41 H         -6.975168   1.249859   2.327638 H        1 UNL1     0.0623
     42 H         -7.914524   2.863689   3.932427 H        1 UNL1     0.0654
     43 H         -11.675368   2.752824   1.860436 H        1 UNL1     0.0654
     44 H         -10.765608   1.18735   0.239454 H        1 UNL1     0.0623
     45 H         -9.621112   3.983875   4.555142 H        1 UNL1     0.2921
     46 H         -3.176352   2.929859   0.1876 H        1 UNL1     0.2922
     47 H         0.791693   0.272204   2.915379 H        1 UNL1     0.2126
     48 H         -0.014692   -2.41849   -1.006948 H        1 UNL1     0.2101
     49 H         -3.381743   -0.232715   0.211944 H        1 UNL1     0.2100
     50 H         -2.329448   -4.36163   0.811279 H        1 UNL1     0.2102
@<TRIPOS>BOND
     1     1     2    1
     2     1     6    1
     3     2     3    1
     4     3     4    1
     5     3    29    1
     6     3    33    1
     7     4     5    1
     8     5     6    1
     9     5     7    1
    10     5    35    1
    11     7     8    1
    12     8     9   ar
    13     8    13   ar
    14     9    10   ar
    15     9    36    1
    16    10    11   ar
    17    10    26    1
    18    11    12   ar
    19    11    14    1
    20    12    13   ar
    21    12    17    1
    22    13    37    1
    23    14    15    1
    24    14    25    2
    25    15    16    1
    26    15    38    1
    27    15    39    1
    28    16    17    1
    29    16    18    1
    30    16    40    1
    31    18    19   ar
    32    18    23   ar
    33    19    20   ar
    34    19    41    1
    35    20    21   ar
    36    20    42    1
    37    21    22   ar
    38    21    24    1
    39    22    23   ar
    40    22    43    1
    41    23    44    1
    42    24    45    1
    43    26    46    1
    44    27    47    1
    45    28    48    1
    46    29    49    1
    47    30    50    1
    48     1    31    1
    49     1    27    1
    50     2    32    1
    51     2    28    1
    52     4    34    1
    53     4    30    1
