@<TRIPOS>MOLECULE
*****
 50 53 0 0 0
SMALL
GASTEIGER

@<TRIPOS>ATOM
     1 C         -0.112792   1.896444   1.077767 C.3        1 UNL1     0.1889
     2 C         -0.071355   1.069184   -0.235193 C.3        1 UNL1     0.1342
     3 C         1.066061   1.447889   -1.196095 C.3        1 UNL1     0.1174
     4 C         1.387142   2.944414   -1.175171 C.3        1 UNL1     0.1456
     5 C         1.498237   3.504293   0.25471 C.3        1 UNL1     0.2326
     6 O         0.290609   3.253668   0.970034 O.3        1 UNL1     -0.3076
     7 O         2.673762   3.058401   0.955168 O.3        1 UNL1     -0.4605
     8 C         3.643109   4.01815   1.184901 C.ar        1 UNL1     0.1310
     9 C         4.952832   3.980684   0.69447 C.ar        1 UNL1     0.0226
     10 C         5.858243   5.012554   0.969018 C.ar        1 UNL1     0.1343
     11 C         5.468357   6.119582   1.721559 C.ar        1 UNL1     0.1007
     12 C         4.175479   6.148681   2.251091 C.ar        1 UNL1     0.1389
     13 C         3.266091   5.109752   1.977101 C.ar        1 UNL1     0.0229
     14 C         6.358026   7.277247   1.971471 C.2        1 UNL1     0.1740
     15 C         5.707059   8.471479   2.605191 C.3        1 UNL1     0.0520
     16 C         4.738558   7.982191   3.673162 C.3        1 UNL1     0.1322
     17 O         3.720776   7.136378   3.093686 O.3        1 UNL1     -0.4828
     18 C         5.427502   7.39206   4.905974 C.ar        1 UNL1     -0.0067
     19 C         5.18946   7.964038   6.172619 C.ar        1 UNL1     -0.0516
     20 C         5.839828   7.478951   7.313529 C.ar        1 UNL1     -0.0198
     21 C         6.734068   6.42952   7.200145 C.ar        1 UNL1     0.1169
     22 C         6.964064   5.823684   5.971771 C.ar        1 UNL1     -0.0198
     23 C         6.299879   6.296559   4.833657 C.ar        1 UNL1     -0.0516
     24 O         7.377125   6.008704   8.326996 O.3        1 UNL1     -0.5068
     25 O         7.534336   7.314192   1.620167 O.2        1 UNL1     -0.2917
     26 O         7.121135   4.914982   0.461898 O.3        1 UNL1     -0.5058
     27 O         0.513828   1.249232   2.173783 O.3        1 UNL1     -0.3648
     28 O         -1.3112   1.268605   -0.939266 O.3        1 UNL1     -0.3841
     29 O         2.216481   0.631772   -0.966706 O.3        1 UNL1     -0.3863
     30 O         0.347327   3.661851   -1.874999 O.3        1 UNL1     -0.3829
     31 H         -1.165999   1.964883   1.37128 H        1 UNL1     0.0937
     32 H         0.0   0.0   0.0 H        1 UNL1     0.0671
     33 H         0.736775   1.207743   -2.216693 H        1 UNL1     0.0649
     34 H         2.323691   3.133504   -1.711382 H        1 UNL1     0.0683
     35 H         1.563433   4.589885   0.10939 H        1 UNL1     0.1085
     36 H         5.300196   3.174985   0.057047 H        1 UNL1     0.0691
     37 H         2.265715   5.155581   2.402119 H        1 UNL1     0.0691
     38 H         5.181048   9.019539   1.816224 H        1 UNL1     0.0385
     39 H         6.482301   9.126062   3.017863 H        1 UNL1     0.0385
     40 H         4.189873   8.860441   4.039414 H        1 UNL1     0.0789
     41 H         4.499015   8.794664   6.286625 H        1 UNL1     0.0623
     42 H         5.656853   7.936206   8.282781 H        1 UNL1     0.0654
     43 H         7.650943   4.991472   5.874144 H        1 UNL1     0.0654
     44 H         6.495487   5.792709   3.892 H        1 UNL1     0.0623
     45 H         7.072234   5.111125   8.537018 H        1 UNL1     0.2921
     46 H         7.766655   5.078523   1.167568 H        1 UNL1     0.2922
     47 H         0.470433   1.808267   2.962108 H        1 UNL1     0.2126
     48 H         -2.027098   1.044265   -0.31405 H        1 UNL1     0.2101
     49 H         2.572367   0.804654   -0.080562 H        1 UNL1     0.2100
     50 H         0.009702   4.361561   -1.278234 H        1 UNL1     0.2102
@<TRIPOS>BOND
     1     1     2    1
     2     1     6    1
     3     2     3    1
     4     3     4    1
     5     3    29    1
     6     3    33    1
     7     4     5    1
     8     5     6    1
     9     5     7    1
    10     5    35    1
    11     7     8    1
    12     8     9   ar
    13     8    13   ar
    14     9    10   ar
    15     9    36    1
    16    10    11   ar
    17    10    26    1
    18    11    12   ar
    19    11    14    1
    20    12    13   ar
    21    12    17    1
    22    13    37    1
    23    14    15    1
    24    14    25    2
    25    15    16    1
    26    15    38    1
    27    15    39    1
    28    16    17    1
    29    16    18    1
    30    16    40    1
    31    18    19   ar
    32    18    23   ar
    33    19    20   ar
    34    19    41    1
    35    20    21   ar
    36    20    42    1
    37    21    22   ar
    38    21    24    1
    39    22    23   ar
    40    22    43    1
    41    23    44    1
    42    24    45    1
    43    26    46    1
    44    27    47    1
    45    28    48    1
    46    29    49    1
    47    30    50    1
    48     1    31    1
    49     1    27    1
    50     2    32    1
    51     2    28    1
    52     4    34    1
    53     4    30    1
