@<TRIPOS>MOLECULE
*****
 50 53 0 0 0
SMALL
GASTEIGER

@<TRIPOS>ATOM
     1 C         -0.330478   -1.327271   1.702921 C.3        1 UNL1     0.1889
     2 C         -0.461733   -0.975558   0.196597 C.3        1 UNL1     0.1342
     3 C         -1.90277   -0.964379   -0.336087 C.3        1 UNL1     0.1174
     4 C         -2.788124   -2.023736   0.324992 C.3        1 UNL1     0.1456
     5 C         -2.635933   -2.047824   1.856861 C.3        1 UNL1     0.2326
     6 O         -1.270765   -2.264728   2.20634 O.3        1 UNL1     -0.3076
     7 O         -3.211386   -0.900671   2.508178 O.3        1 UNL1     -0.4605
     8 C         -3.720306   -1.115471   3.776401 C.ar        1 UNL1     0.1310
     9 C         -4.535631   -2.188779   4.15131 C.ar        1 UNL1     0.0226
     10 C         -4.98783   -2.328426   5.468852 C.ar        1 UNL1     0.1343
     11 C         -4.615741   -1.410172   6.449769 C.ar        1 UNL1     0.1007
     12 C         -3.835629   -0.311789   6.078604 C.ar        1 UNL1     0.1389
     13 C         -3.383253   -0.170166   4.753187 C.ar        1 UNL1     0.0229
     14 C         -4.995581   -1.555122   7.874152 C.2        1 UNL1     0.1740
     15 C         -4.326912   -0.60557   8.8243 C.3        1 UNL1     0.0520
     16 C         -4.259022   0.76592   8.166757 C.3        1 UNL1     0.1322
     17 O         -3.501012   0.708649   6.938257 O.3        1 UNL1     -0.4828
     18 C         -5.618876   1.457166   8.041455 C.ar        1 UNL1     -0.0067
     19 C         -5.99903   2.018664   6.805163 C.ar        1 UNL1     -0.0516
     20 C         -7.214905   2.699121   6.668821 C.ar        1 UNL1     -0.0198
     21 C         -8.054158   2.830983   7.760652 C.ar        1 UNL1     0.1169
     22 C         -7.722789   2.260047   8.982562 C.ar        1 UNL1     -0.0198
     23 C         -6.515447   1.563628   9.114404 C.ar        1 UNL1     -0.0516
     24 O         -9.21249   3.532939   7.59964 O.3        1 UNL1     -0.5068
     25 O         -5.743469   -2.437061   8.288076 O.2        1 UNL1     -0.2917
     26 O         -5.781152   -3.397115   5.769067 O.3        1 UNL1     -0.5058
     27 O         -0.22561   -0.188349   2.542353 O.3        1 UNL1     -0.3648
     28 O         0.269159   -1.954083   -0.565632 O.3        1 UNL1     -0.3841
     29 O         -2.461042   0.348931   -0.260705 O.3        1 UNL1     -0.3863
     30 O         -2.439916   -3.324697   -0.19649 O.3        1 UNL1     -0.3829
     31 H         0.630566   -1.839418   1.821991 H        1 UNL1     0.0937
     32 H         0.0   0.0   0.0 H        1 UNL1     0.0671
     33 H         -1.865995   -1.204705   -1.40782 H        1 UNL1     0.0649
     34 H         -3.838457   -1.846279   0.068652 H        1 UNL1     0.0683
     35 H         -3.189951   -2.943822   2.163668 H        1 UNL1     0.1085
     36 H         -4.81383   -2.966274   3.448297 H        1 UNL1     0.0691
     37 H         -2.778021   0.694524   4.489561 H        1 UNL1     0.0691
     38 H         -3.324156   -0.994754   9.030563 H        1 UNL1     0.0385
     39 H         -4.886607   -0.586179   9.765652 H        1 UNL1     0.0385
     40 H         -3.664262   1.412109   8.826468 H        1 UNL1     0.0789
     41 H         -5.353639   1.936713   5.935448 H        1 UNL1     0.0623
     42 H         -7.491343   3.137988   5.713316 H        1 UNL1     0.0654
     43 H         -8.37959   2.344356   9.840125 H        1 UNL1     0.0654
     44 H         -6.293433   1.121248   10.080766 H        1 UNL1     0.0623
     45 H         -8.987342   4.440136   7.336926 H        1 UNL1     0.2921
     46 H         -5.375864   -3.909482   6.486447 H        1 UNL1     0.2922
     47 H         0.517008   0.36558   2.26389 H        1 UNL1     0.2126
     48 H         1.202019   -1.88792   -0.284337 H        1 UNL1     0.2101
     49 H         -2.022736   0.931126   -0.901587 H        1 UNL1     0.2100
     50 H         -2.673512   -3.340615   -1.147748 H        1 UNL1     0.2102
@<TRIPOS>BOND
     1     1     2    1
     2     1     6    1
     3     2     3    1
     4     3     4    1
     5     3    29    1
     6     3    33    1
     7     4     5    1
     8     5     6    1
     9     5     7    1
    10     5    35    1
    11     7     8    1
    12     8     9   ar
    13     8    13   ar
    14     9    10   ar
    15     9    36    1
    16    10    11   ar
    17    10    26    1
    18    11    12   ar
    19    11    14    1
    20    12    13   ar
    21    12    17    1
    22    13    37    1
    23    14    15    1
    24    14    25    2
    25    15    16    1
    26    15    38    1
    27    15    39    1
    28    16    17    1
    29    16    18    1
    30    16    40    1
    31    18    19   ar
    32    18    23   ar
    33    19    20   ar
    34    19    41    1
    35    20    21   ar
    36    20    42    1
    37    21    22   ar
    38    21    24    1
    39    22    23   ar
    40    22    43    1
    41    23    44    1
    42    24    45    1
    43    26    46    1
    44    27    47    1
    45    28    48    1
    46    29    49    1
    47    30    50    1
    48     1    31    1
    49     1    27    1
    50     2    32    1
    51     2    28    1
    52     4    34    1
    53     4    30    1
