@<TRIPOS>MOLECULE
*****
 50 53 0 0 0
SMALL
GASTEIGER

@<TRIPOS>ATOM
     1 C         -0.319066   -1.357436   1.681181 C.3        1 UNL1     0.1889
     2 C         -0.461564   -0.978367   0.182534 C.3        1 UNL1     0.1342
     3 C         -1.906693   -0.955721   -0.338574 C.3        1 UNL1     0.1174
     4 C         -2.788362   -2.025736   0.310151 C.3        1 UNL1     0.1456
     5 C         -2.624266   -2.077723   1.840096 C.3        1 UNL1     0.2326
     6 O         -1.256722   -2.302649   2.174909 O.3        1 UNL1     -0.3076
     7 O         -3.193002   -0.941808   2.516526 O.3        1 UNL1     -0.4605
     8 C         -3.702972   -1.181387   3.779879 C.ar        1 UNL1     0.1310
     9 C         -4.524419   -2.25793   4.131419 C.ar        1 UNL1     0.0226
     10 C         -4.977229   -2.423782   5.445709 C.ar        1 UNL1     0.1343
     11 C         -4.599712   -1.529384   6.446395 C.ar        1 UNL1     0.1007
     12 C         -3.813331   -0.427652   6.099156 C.ar        1 UNL1     0.1389
     13 C         -3.360334   -0.259652   4.777037 C.ar        1 UNL1     0.0229
     14 C         -4.980179   -1.703294   7.867364 C.2        1 UNL1     0.1740
     15 C         -4.30591   -0.778641   8.837894 C.3        1 UNL1     0.0520
     16 C         -4.230206   0.606503   8.210516 C.3        1 UNL1     0.1322
     17 O         -3.472713   0.571776   6.980854 O.3        1 UNL1     -0.4828
     18 C         -5.586069   1.30815   8.100742 C.ar        1 UNL1     -0.0067
     19 C         -5.955623   1.914134   6.882372 C.ar        1 UNL1     -0.0516
     20 C         -7.167488   2.6047   6.762102 C.ar        1 UNL1     -0.0198
     21 C         -8.01322   2.702475   7.852517 C.ar        1 UNL1     0.1169
     22 C         -7.692399   2.087793   9.055878 C.ar        1 UNL1     -0.0198
     23 C         -6.489109   1.381472   9.17104 C.ar        1 UNL1     -0.0516
     24 O         -9.167287   3.415111   7.708708 O.3        1 UNL1     -0.5068
     25 O         -5.733082   -2.589759   8.262082 O.2        1 UNL1     -0.2917
     26 O         -5.776659   -3.494199   5.722668 O.3        1 UNL1     -0.5058
     27 O         -0.206046   -0.234018   2.540219 O.3        1 UNL1     -0.3648
     28 O         0.261979   -1.943873   -0.602953 O.3        1 UNL1     -0.3841
     29 O         -2.462504   0.356719   -0.235097 O.3        1 UNL1     -0.3863
     30 O         -2.44607   -3.317493   -0.237472 O.3        1 UNL1     -0.3829
     31 H         0.642153   -1.872875   1.783453 H        1 UNL1     0.0937
     32 H         0.0   0.0   0.0 H        1 UNL1     0.0671
     33 H         -1.878615   -1.176669   -1.414731 H        1 UNL1     0.0649
     34 H         -3.84041   -1.842336   0.065284 H        1 UNL1     0.0683
     35 H         -3.177141   -2.978419   2.134979 H        1 UNL1     0.1085
     36 H         -4.807197   -3.018231   3.411628 H        1 UNL1     0.0691
     37 H         -2.750163   0.607101   4.532242 H        1 UNL1     0.0691
     38 H         -3.305386   -1.178019   9.035318 H        1 UNL1     0.0385
     39 H         -4.865351   -0.776639   9.779595 H        1 UNL1     0.0385
     40 H         -3.631636   1.234655   8.884057 H        1 UNL1     0.0789
     41 H         -5.304966   1.859431   6.014441 H        1 UNL1     0.0623
     42 H         -7.435712   3.077863   5.820729 H        1 UNL1     0.0654
     43 H         -8.354377   2.14533   9.911673 H        1 UNL1     0.0654
     44 H         -6.275394   0.904679   10.122795 H        1 UNL1     0.0623
     45 H         -8.935804   4.337004   7.510603 H        1 UNL1     0.2921
     46 H         -5.375559   -4.023003   6.430409 H        1 UNL1     0.2922
     47 H         0.522093   0.334751   2.25356 H        1 UNL1     0.2126
     48 H         1.203328   -1.853939   -0.359017 H        1 UNL1     0.2101
     49 H         -2.034343   0.9478   -0.874703 H        1 UNL1     0.2100
     50 H         -2.692306   -3.317851   -1.185671 H        1 UNL1     0.2102
@<TRIPOS>BOND
     1     1     2    1
     2     1     6    1
     3     2     3    1
     4     3     4    1
     5     3    29    1
     6     3    33    1
     7     4     5    1
     8     5     6    1
     9     5     7    1
    10     5    35    1
    11     7     8    1
    12     8     9   ar
    13     8    13   ar
    14     9    10   ar
    15     9    36    1
    16    10    11   ar
    17    10    26    1
    18    11    12   ar
    19    11    14    1
    20    12    13   ar
    21    12    17    1
    22    13    37    1
    23    14    15    1
    24    14    25    2
    25    15    16    1
    26    15    38    1
    27    15    39    1
    28    16    17    1
    29    16    18    1
    30    16    40    1
    31    18    19   ar
    32    18    23   ar
    33    19    20   ar
    34    19    41    1
    35    20    21   ar
    36    20    42    1
    37    21    22   ar
    38    21    24    1
    39    22    23   ar
    40    22    43    1
    41    23    44    1
    42    24    45    1
    43    26    46    1
    44    27    47    1
    45    28    48    1
    46    29    49    1
    47    30    50    1
    48     1    31    1
    49     1    27    1
    50     2    32    1
    51     2    28    1
    52     4    34    1
    53     4    30    1
