@<TRIPOS>MOLECULE
*****
 50 53 0 0 0
SMALL
GASTEIGER

@<TRIPOS>ATOM
     1 C         -0.290246   -1.389056   1.660447 C.3        1 UNL1     0.1889
     2 C         -0.456724   -0.98263   0.171473 C.3        1 UNL1     0.1342
     3 C         -1.909802   -0.953639   -0.32671 C.3        1 UNL1     0.1174
     4 C         -2.779168   -2.037493   0.315616 C.3        1 UNL1     0.1456
     5 C         -2.591262   -2.117423   1.841613 C.3        1 UNL1     0.2326
     6 O         -1.218244   -2.345387   2.151003 O.3        1 UNL1     -0.3076
     7 O         -3.151706   -0.995529   2.547712 O.3        1 UNL1     -0.4605
     8 C         -3.641544   -1.259623   3.814141 C.ar        1 UNL1     0.1310
     9 C         -4.45529   -2.344363   4.158316 C.ar        1 UNL1     0.0226
     10 C         -4.887333   -2.535555   5.47615 C.ar        1 UNL1     0.1343
     11 C         -4.496129   -1.658978   6.487295 C.ar        1 UNL1     0.1007
     12 C         -3.717428   -0.549212   6.148429 C.ar        1 UNL1     0.1389
     13 C         -3.285325   -0.355728   4.822804 C.ar        1 UNL1     0.0229
     14 C         -4.854166   -1.860036   7.910509 C.2        1 UNL1     0.1740
     15 C         -4.166775   -0.951974   8.887477 C.3        1 UNL1     0.0520
     16 C         -4.103574   0.444718   8.284803 C.3        1 UNL1     0.1322
     17 O         -3.365174   0.434494   7.043139 O.3        1 UNL1     -0.4828
     18 C         -5.462375   1.14518   8.209048 C.ar        1 UNL1     -0.0067
     19 C         -5.851987   1.772773   7.007989 C.ar        1 UNL1     -0.0516
     20 C         -7.066948   2.462678   6.919309 C.ar        1 UNL1     -0.0198
     21 C         -7.895863   2.538316   8.024301 C.ar        1 UNL1     0.1169
     22 C         -7.555192   1.902192   9.210947 C.ar        1 UNL1     -0.0198
     23 C         -6.348853   1.19661   9.294362 C.ar        1 UNL1     -0.0516
     24 O         -9.053441   3.250856   7.911603 O.3        1 UNL1     -0.5068
     25 O         -5.599087   -2.755374   8.300314 O.2        1 UNL1     -0.2917
     26 O         -5.680233   -3.612738   5.74554 O.3        1 UNL1     -0.5058
     27 O         -0.166161   -0.281481   2.538325 O.3        1 UNL1     -0.3648
     28 O         0.256477   -1.931772   -0.642886 O.3        1 UNL1     -0.3841
     29 O         -2.466561   0.355387   -0.190323 O.3        1 UNL1     -0.3863
     30 O         -2.442831   -3.318104   -0.261102 O.3        1 UNL1     -0.3829
     31 H         0.673471   -1.904104   1.738261 H        1 UNL1     0.0937
     32 H         0.0   0.0   0.0 H        1 UNL1     0.0671
     33 H         -1.897976   -1.154559   -1.407085 H        1 UNL1     0.0649
     34 H         -3.835251   -1.851993   0.090495 H        1 UNL1     0.0683
     35 H         -3.137698   -3.024685   2.128255 H        1 UNL1     0.1085
     36 H         -4.747679   -3.09185   3.429006 H        1 UNL1     0.0691
     37 H         -2.680755   0.516799   4.58472 H        1 UNL1     0.0691
     38 H         -3.162515   -1.352653   9.061959 H        1 UNL1     0.0385
     39 H         -4.711548   -0.968686   9.837593 H        1 UNL1     0.0385
     40 H         -3.495886   1.061657   8.960541 H        1 UNL1     0.0789
     41 H         -5.21476   1.735635   6.129233 H        1 UNL1     0.0623
     42 H         -7.350682   2.952576   5.991135 H        1 UNL1     0.0654
     43 H         -8.203932   1.942363   10.077799 H        1 UNL1     0.0654
     44 H         -6.119453   0.702766   10.23369 H        1 UNL1     0.0623
     45 H         -8.826898   4.176785   7.727075 H        1 UNL1     0.2921
     46 H         -5.267151   -4.153639   6.437061 H        1 UNL1     0.2922
     47 H         0.556309   0.29416   2.251036 H        1 UNL1     0.2126
     48 H         1.201315   -1.844221   -0.411913 H        1 UNL1     0.2101
     49 H         -2.049551   0.959186   -0.825401 H        1 UNL1     0.2100
     50 H         -2.703741   -3.301468   -1.205222 H        1 UNL1     0.2102
@<TRIPOS>BOND
     1     1     2    1
     2     1     6    1
     3     2     3    1
     4     3     4    1
     5     3    29    1
     6     3    33    1
     7     4     5    1
     8     5     6    1
     9     5     7    1
    10     5    35    1
    11     7     8    1
    12     8     9   ar
    13     8    13   ar
    14     9    10   ar
    15     9    36    1
    16    10    11   ar
    17    10    26    1
    18    11    12   ar
    19    11    14    1
    20    12    13   ar
    21    12    17    1
    22    13    37    1
    23    14    15    1
    24    14    25    2
    25    15    16    1
    26    15    38    1
    27    15    39    1
    28    16    17    1
    29    16    18    1
    30    16    40    1
    31    18    19   ar
    32    18    23   ar
    33    19    20   ar
    34    19    41    1
    35    20    21   ar
    36    20    42    1
    37    21    22   ar
    38    21    24    1
    39    22    23   ar
    40    22    43    1
    41    23    44    1
    42    24    45    1
    43    26    46    1
    44    27    47    1
    45    28    48    1
    46    29    49    1
    47    30    50    1
    48     1    31    1
    49     1    27    1
    50     2    32    1
    51     2    28    1
    52     4    34    1
    53     4    30    1
