@<TRIPOS>MOLECULE
*****
 50 53 0 0 0
SMALL
GASTEIGER

@<TRIPOS>ATOM
     1 C         -0.906308   1.054404   1.684531 C.3        1 UNL1     0.1889
     2 C         -0.667968   0.854764   0.163584 C.3        1 UNL1     0.1342
     3 C         -0.097611   2.082627   -0.562714 C.3        1 UNL1     0.1174
     4 C         -0.621087   3.404261   0.005068 C.3        1 UNL1     0.1456
     5 C         -0.570361   3.447141   1.543233 C.3        1 UNL1     0.2326
     6 O         -1.310687   2.355487   2.084599 O.3        1 UNL1     -0.3076
     7 O         0.765529   3.541612   2.070294 O.3        1 UNL1     -0.4605
     8 C         1.67996   2.631627   1.571022 C.ar        1 UNL1     0.1310
     9 C         2.208225   2.64139   0.275591 C.ar        1 UNL1     0.0226
     10 C         3.144826   1.683729   -0.131307 C.ar        1 UNL1     0.1343
     11 C         3.594185   0.706398   0.755678 C.ar        1 UNL1     0.1007
     12 C         3.043376   0.661534   2.039181 C.ar        1 UNL1     0.1389
     13 C         2.099676   1.622965   2.44724 C.ar        1 UNL1     0.0229
     14 C         4.64395   -0.278051   0.404953 C.2        1 UNL1     0.1740
     15 C         5.16296   -1.106979   1.542959 C.3        1 UNL1     0.0520
     16 C         3.988666   -1.495868   2.430514 C.3        1 UNL1     0.1322
     17 O         3.332847   -0.321269   2.957097 O.3        1 UNL1     -0.4828
     18 C         3.044346   -2.516561   1.790849 C.ar        1 UNL1     -0.0067
     19 C         2.539026   -3.576653   2.571279 C.ar        1 UNL1     -0.0516
     20 C         1.711242   -4.553848   2.005747 C.ar        1 UNL1     -0.0198
     21 C         1.388159   -4.486385   0.662284 C.ar        1 UNL1     0.1169
     22 C         1.843077   -3.436125   -0.124381 C.ar        1 UNL1     -0.0198
     23 C         2.655827   -2.448654   0.445176 C.ar        1 UNL1     -0.0516
     24 O         0.610526   -5.476702   0.137918 O.3        1 UNL1     -0.5068
     25 O         5.132344   -0.374567   -0.717829 O.2        1 UNL1     -0.2917
     26 O         3.620297   1.747962   -1.408564 O.3        1 UNL1     -0.5058
     27 O         0.151997   0.563475   2.491852 O.3        1 UNL1     -0.3648
     28 O         -1.927157   0.536288   -0.457481 O.3        1 UNL1     -0.3841
     29 O         1.32958   2.02678   -0.608953 O.3        1 UNL1     -0.3863
     30 O         -1.98833   3.593862   -0.41965 O.3        1 UNL1     -0.3829
     31 H         -1.763139   0.426401   1.951986 H        1 UNL1     0.0937
     32 H         0.0   0.0   0.0 H        1 UNL1     0.0671
     33 H         -0.425573   2.034787   -1.610509 H        1 UNL1     0.0649
     34 H         -0.040834   4.240995   -0.399387 H        1 UNL1     0.0683
     35 H         -1.117787   4.362565   1.800532 H        1 UNL1     0.1085
     36 H         1.941415   3.408333   -0.443249 H        1 UNL1     0.0691
     37 H         1.68519   1.565498   3.451427 H        1 UNL1     0.0691
     38 H         5.888581   -0.497809   2.092425 H        1 UNL1     0.0385
     39 H         5.68549   -1.981635   1.140818 H        1 UNL1     0.0385
     40 H         4.403687   -1.998238   3.314767 H        1 UNL1     0.0789
     41 H         2.785424   -3.65704   3.626019 H        1 UNL1     0.0623
     42 H         1.337599   -5.372942   2.615245 H        1 UNL1     0.0654
     43 H         1.583855   -3.365372   -1.174004 H        1 UNL1     0.0654
     44 H         2.9846   -1.63676   -0.19637 H        1 UNL1     0.0623
     45 H         1.088564   -6.317829   0.219783 H        1 UNL1     0.2921
     46 H         3.492629   2.644619   -1.756586 H        1 UNL1     0.2922
     47 H         0.49213   1.266984   3.062154 H        1 UNL1     0.2126
     48 H         -2.316503   1.382641   -0.750444 H        1 UNL1     0.2101
     49 H         1.651101   1.318479   -0.028671 H        1 UNL1     0.2100
     50 H         -2.142546   3.025186   -1.202298 H        1 UNL1     0.2102
@<TRIPOS>BOND
     1     1     2    1
     2     1     6    1
     3     2     3    1
     4     3     4    1
     5     3    29    1
     6     3    33    1
     7     4     5    1
     8     5     6    1
     9     5     7    1
    10     5    35    1
    11     7     8    1
    12     8     9   ar
    13     8    13   ar
    14     9    10   ar
    15     9    36    1
    16    10    11   ar
    17    10    26    1
    18    11    12   ar
    19    11    14    1
    20    12    13   ar
    21    12    17    1
    22    13    37    1
    23    14    15    1
    24    14    25    2
    25    15    16    1
    26    15    38    1
    27    15    39    1
    28    16    17    1
    29    16    18    1
    30    16    40    1
    31    18    19   ar
    32    18    23   ar
    33    19    20   ar
    34    19    41    1
    35    20    21   ar
    36    20    42    1
    37    21    22   ar
    38    21    24    1
    39    22    23   ar
    40    22    43    1
    41    23    44    1
    42    24    45    1
    43    26    46    1
    44    27    47    1
    45    28    48    1
    46    29    49    1
    47    30    50    1
    48     1    31    1
    49     1    27    1
    50     2    32    1
    51     2    28    1
    52     4    34    1
    53     4    30    1
