@<TRIPOS>MOLECULE
*****
 50 53 0 0 0
SMALL
GASTEIGER

@<TRIPOS>ATOM
     1 C         -0.332824   -1.328372   1.701605 C.3        1 UNL1     0.1889
     2 C         -0.462979   -0.975182   0.195532 C.3        1 UNL1     0.1342
     3 C         -1.90376   -0.961825   -0.337794 C.3        1 UNL1     0.1174
     4 C         -2.79067   -2.020711   0.321954 C.3        1 UNL1     0.1456
     5 C         -2.639202   -2.046323   1.85387 C.3        1 UNL1     0.2326
     6 O         -1.27445   -2.265154   2.203776 O.3        1 UNL1     -0.3076
     7 O         -3.213589   -0.89906   2.505934 O.3        1 UNL1     -0.4605
     8 C         -3.723338   -1.114369   3.773737 C.ar        1 UNL1     0.1310
     9 C         -4.540105   -2.187037   4.147335 C.ar        1 UNL1     0.0226
     10 C         -4.993067   -2.327304   5.464549 C.ar        1 UNL1     0.1343
     11 C         -4.620334   -1.410353   6.446441 C.ar        1 UNL1     0.1007
     12 C         -3.838751   -0.312572   6.076593 C.ar        1 UNL1     0.1389
     13 C         -3.385606   -0.170322   4.751506 C.ar        1 UNL1     0.0229
     14 C         -5.000991   -1.556103   7.870523 C.2        1 UNL1     0.1740
     15 C         -4.331626   -0.608179   8.821807 C.3        1 UNL1     0.0520
     16 C         -4.261812   0.763806   8.165499 C.3        1 UNL1     0.1322
     17 O         -3.503313   0.706714   6.937293 O.3        1 UNL1     -0.4828
     18 C         -5.620788   1.456775   8.040189 C.ar        1 UNL1     -0.0067
     19 C         -5.999715   2.019808   6.80422 C.ar        1 UNL1     -0.0516
     20 C         -7.21472   2.701828   6.667926 C.ar        1 UNL1     -0.0198
     21 C         -8.054311   2.833727   7.759492 C.ar        1 UNL1     0.1169
     22 C         -7.724173   2.261326   8.98105 C.ar        1 UNL1     -0.0198
     23 C         -6.517718   1.56336   9.112827 C.ar        1 UNL1     -0.0516
     24 O         -9.211736   3.537198   7.598573 O.3        1 UNL1     -0.5068
     25 O         -5.750112   -2.437516   8.283335 O.2        1 UNL1     -0.2917
     26 O         -5.787793   -3.395314   5.763467 O.3        1 UNL1     -0.5058
     27 O         -0.226986   -0.190312   2.542084 O.3        1 UNL1     -0.3648
     28 O         0.267097   -1.953904   -0.567226 O.3        1 UNL1     -0.3841
     29 O         -2.460507   0.35208   -0.261511 O.3        1 UNL1     -0.3863
     30 O         -2.443769   -3.321625   -0.200513 O.3        1 UNL1     -0.3829
     31 H         0.627558   -1.841763   1.82066 H        1 UNL1     0.0937
     32 H         0.0   0.0   0.0 H        1 UNL1     0.0671
     33 H         -1.866784   -1.201254   -1.409721 H        1 UNL1     0.0649
     34 H         -3.840675   -1.841782   0.065295 H        1 UNL1     0.0683
     35 H         -3.194422   -2.941932   2.159639 H        1 UNL1     0.1085
     36 H         -4.818908   -2.963585   3.443514 H        1 UNL1     0.0691
     37 H         -2.77923   0.69388   4.488913 H        1 UNL1     0.0691
     38 H         -3.329427   -0.998733   9.028182 H        1 UNL1     0.0385
     39 H         -4.891725   -0.588949   9.762922 H        1 UNL1     0.0385
     40 H         -3.666584   1.40871   8.826047 H        1 UNL1     0.0789
     41 H         -5.354028   1.937856   5.934725 H        1 UNL1     0.0623
     42 H         -7.490204   3.141861   5.712681 H        1 UNL1     0.0654
     43 H         -8.381263   2.345662   9.838389 H        1 UNL1     0.0654
     44 H         -6.296667   1.119868   10.0789 H        1 UNL1     0.0623
     45 H         -8.985358   4.444667   7.337862 H        1 UNL1     0.2921
     46 H         -5.383998   -3.90816   6.481346 H        1 UNL1     0.2922
     47 H         0.516309   0.363068   2.264338 H        1 UNL1     0.2126
     48 H         1.200027   -1.888606   -0.285963 H        1 UNL1     0.2101
     49 H         -2.02128   0.934295   -0.901745 H        1 UNL1     0.2100
     50 H         -2.676953   -3.336431   -1.15189 H        1 UNL1     0.2102
@<TRIPOS>BOND
     1     1     2    1
     2     1     6    1
     3     2     3    1
     4     3     4    1
     5     3    29    1
     6     3    33    1
     7     4     5    1
     8     5     6    1
     9     5     7    1
    10     5    35    1
    11     7     8    1
    12     8     9   ar
    13     8    13   ar
    14     9    10   ar
    15     9    36    1
    16    10    11   ar
    17    10    26    1
    18    11    12   ar
    19    11    14    1
    20    12    13   ar
    21    12    17    1
    22    13    37    1
    23    14    15    1
    24    14    25    2
    25    15    16    1
    26    15    38    1
    27    15    39    1
    28    16    17    1
    29    16    18    1
    30    16    40    1
    31    18    19   ar
    32    18    23   ar
    33    19    20   ar
    34    19    41    1
    35    20    21   ar
    36    20    42    1
    37    21    22   ar
    38    21    24    1
    39    22    23   ar
    40    22    43    1
    41    23    44    1
    42    24    45    1
    43    26    46    1
    44    27    47    1
    45    28    48    1
    46    29    49    1
    47    30    50    1
    48     1    31    1
    49     1    27    1
    50     2    32    1
    51     2    28    1
    52     4    34    1
    53     4    30    1
