@<TRIPOS>MOLECULE
*****
 50 53 0 0 0
SMALL
GASTEIGER

@<TRIPOS>ATOM
     1 C         -0.367192   -1.396525   1.638809 C.3        1 UNL1     0.1889
     2 C         -0.486032   -0.971975   0.150328 C.3        1 UNL1     0.1342
     3 C         -1.925034   -0.900515   -0.383182 C.3        1 UNL1     0.1174
     4 C         -2.837769   -1.967348   0.226655 C.3        1 UNL1     0.1456
     5 C         -2.690018   -2.066431   1.755941 C.3        1 UNL1     0.2326
     6 O         -1.331458   -2.332935   2.096761 O.3        1 UNL1     -0.3076
     7 O         -3.238746   -0.936995   2.459213 O.3        1 UNL1     -0.4605
     8 C         -3.766592   -1.200103   3.710485 C.ar        1 UNL1     0.1310
     9 C         -4.607996   -2.272412   4.025913 C.ar        1 UNL1     0.0226
     10 C         -5.078169   -2.46396   5.330577 C.ar        1 UNL1     0.1343
     11 C         -4.698736   -1.600564   6.357425 C.ar        1 UNL1     0.1007
     12 C         -3.892065   -0.502649   6.046541 C.ar        1 UNL1     0.1389
     13 C         -3.421583   -0.308762   4.734106 C.ar        1 UNL1     0.0229
     14 C         -5.097914   -1.803921   7.769323 C.2        1 UNL1     0.1740
     15 C         -4.420985   -0.914054   8.77005 C.3        1 UNL1     0.0520
     16 C         -4.317437   0.484941   8.1784 C.3        1 UNL1     0.1322
     17 O         -3.546598   0.469251   6.956668 O.3        1 UNL1     -0.4828
     18 C         -5.661318   1.209674   8.071299 C.ar        1 UNL1     -0.0067
     19 C         -5.686304   2.572733   7.711217 C.ar        1 UNL1     -0.0516
     20 C         -6.894386   3.277564   7.650279 C.ar        1 UNL1     -0.0198
     21 C         -8.080854   2.634038   7.953586 C.ar        1 UNL1     0.1169
     22 C         -8.09198   1.28391   8.278962 C.ar        1 UNL1     -0.0198
     23 C         -6.885946   0.574203   8.322016 C.ar        1 UNL1     -0.0516
     24 O         -9.233595   3.36238   7.920334 O.3        1 UNL1     -0.5068
     25 O         -5.868434   -2.688349   8.133423 O.2        1 UNL1     -0.2917
     26 O         -5.896618   -3.528627   5.571848 O.3        1 UNL1     -0.5058
     27 O         -0.236475   -0.300826   2.530517 O.3        1 UNL1     -0.3648
     28 O         0.222502   -1.931686   -0.655675 O.3        1 UNL1     -0.3841
     29 O         -2.451078   0.421222   -0.247456 O.3        1 UNL1     -0.3863
     30 O         -2.520316   -3.250819   -0.354392 O.3        1 UNL1     -0.3829
     31 H         0.58069   -1.937183   1.735179 H        1 UNL1     0.0937
     32 H         0.0   0.0   0.0 H        1 UNL1     0.0671
     33 H         -1.891512   -1.091546   -1.464895 H        1 UNL1     0.0649
     34 H         -3.88279   -1.752327   -0.022544 H        1 UNL1     0.0683
     35 H         -3.266627   -2.96181   2.019941 H        1 UNL1     0.1085
     36 H         -4.8939   -3.010192   3.284253 H        1 UNL1     0.0691
     37 H         -2.795771   0.554411   4.517809 H        1 UNL1     0.0691
     38 H         -3.428859   -1.333411   8.968421 H        1 UNL1     0.0385
     39 H         -4.991018   -0.926935   9.70529 H        1 UNL1     0.0385
     40 H         -3.717247   1.086968   8.873997 H        1 UNL1     0.0789
     41 H         -4.767646   3.102885   7.477426 H        1 UNL1     0.0623
     42 H         -6.899331   4.331366   7.382905 H        1 UNL1     0.0654
     43 H         -9.016981   0.76641   8.503633 H        1 UNL1     0.0654
     44 H         -6.932913   -0.481896   8.56959 H        1 UNL1     0.0623
     45 H         -9.191067   4.035899   8.618389 H        1 UNL1     0.2921
     46 H         -5.522711   -4.068861   6.285817 H        1 UNL1     0.2922
     47 H         0.507522   0.258485   2.266888 H        1 UNL1     0.2126
     48 H         1.174505   -1.777904   -0.501488 H        1 UNL1     0.2101
     49 H         -2.136885   0.978041   -0.977545 H        1 UNL1     0.2100
     50 H         -2.778083   -3.22611   -1.299197 H        1 UNL1     0.2102
@<TRIPOS>BOND
     1     1     2    1
     2     1     6    1
     3     2     3    1
     4     3     4    1
     5     3    29    1
     6     3    33    1
     7     4     5    1
     8     5     6    1
     9     5     7    1
    10     5    35    1
    11     7     8    1
    12     8     9   ar
    13     8    13   ar
    14     9    10   ar
    15     9    36    1
    16    10    11   ar
    17    10    26    1
    18    11    12   ar
    19    11    14    1
    20    12    13   ar
    21    12    17    1
    22    13    37    1
    23    14    15    1
    24    14    25    2
    25    15    16    1
    26    15    38    1
    27    15    39    1
    28    16    17    1
    29    16    18    1
    30    16    40    1
    31    18    19   ar
    32    18    23   ar
    33    19    20   ar
    34    19    41    1
    35    20    21   ar
    36    20    42    1
    37    21    22   ar
    38    21    24    1
    39    22    23   ar
    40    22    43    1
    41    23    44    1
    42    24    45    1
    43    26    46    1
    44    27    47    1
    45    28    48    1
    46    29    49    1
    47    30    50    1
    48     1    31    1
    49     1    27    1
    50     2    32    1
    51     2    28    1
    52     4    34    1
    53     4    30    1
