@<TRIPOS>MOLECULE
*****
 50 53 0 0 0
SMALL
GASTEIGER

@<TRIPOS>ATOM
     1 C         0.905681   -1.90059   -0.581639 C.3        1 UNL1     0.1889
     2 C         -0.263079   -0.879046   -0.601356 C.3        1 UNL1     0.1342
     3 C         -1.609385   -1.435473   -0.113182 C.3        1 UNL1     0.1174
     4 C         -1.815884   -2.904769   -0.489538 C.3        1 UNL1     0.1456
     5 C         -0.579274   -3.770796   -0.187615 C.3        1 UNL1     0.2326
     6 O         0.558752   -3.247322   -0.868601 O.3        1 UNL1     -0.3076
     7 O         -0.352429   -3.975622   1.218766 O.3        1 UNL1     -0.4605
     8 C         -1.069692   -5.002819   1.805219 C.ar        1 UNL1     0.1310
     9 C         -1.787058   -4.909497   3.002707 C.ar        1 UNL1     0.0226
     10 C         -2.498008   -6.004683   3.507703 C.ar        1 UNL1     0.1343
     11 C         -2.528345   -7.213979   2.814505 C.ar        1 UNL1     0.1007
     12 C         -1.782399   -7.331696   1.638711 C.ar        1 UNL1     0.1389
     13 C         -1.065474   -6.231142   1.132519 C.ar        1 UNL1     0.0229
     14 C         -3.330934   -8.376986   3.258824 C.2        1 UNL1     0.1740
     15 C         -3.424864   -9.512249   2.282145 C.3        1 UNL1     0.0520
     16 C         -2.061183   -9.703055   1.632587 C.3        1 UNL1     0.1322
     17 O         -1.654031   -8.505968   0.933817 O.3        1 UNL1     -0.4828
     18 C         -1.003057   -10.2765   2.578237 C.ar        1 UNL1     -0.0067
     19 C         -1.35868   -11.307703   3.471751 C.ar        1 UNL1     -0.0516
     20 C         -0.427925   -11.821791   4.38245 C.ar        1 UNL1     -0.0198
     21 C         0.856632   -11.309237   4.414493 C.ar        1 UNL1     0.1169
     22 C         1.246317   -10.316803   3.524515 C.ar        1 UNL1     -0.0198
     23 C         0.32103   -9.815351   2.601235 C.ar        1 UNL1     -0.0516
     24 O         1.724727   -11.808487   5.340539 O.3        1 UNL1     -0.5068
     25 O         -3.95465   -8.403599   4.316536 O.2        1 UNL1     -0.2917
     26 O         -3.176204   -5.848301   4.681236 O.3        1 UNL1     -0.5058
     27 O         1.720705   -1.804913   0.575672 O.3        1 UNL1     -0.3648
     28 O         -0.451697   -0.427843   -1.95544 O.3        1 UNL1     -0.3841
     29 O         -1.781539   -1.192718   1.284518 O.3        1 UNL1     -0.3863
     30 O         -2.112719   -2.995305   -1.899992 O.3        1 UNL1     -0.3829
     31 H         1.574013   -1.627231   -1.405463 H        1 UNL1     0.0937
     32 H         0.0   0.0   0.0 H        1 UNL1     0.0671
     33 H         -2.40746   -0.865264   -0.608822 H        1 UNL1     0.0649
     34 H         -2.681003   -3.310173   0.046761 H        1 UNL1     0.0683
     35 H         -0.812859   -4.736728   -0.652687 H        1 UNL1     0.1085
     36 H         -1.848687   -3.98096   3.55961 H        1 UNL1     0.0691
     37 H         -0.491752   -6.348995   0.21576 H        1 UNL1     0.0691
     38 H         -4.183221   -9.246894   1.537828 H        1 UNL1     0.0385
     39 H         -3.762229   -10.411619   2.808545 H        1 UNL1     0.0385
     40 H         -2.181953   -10.455219   0.841269 H        1 UNL1     0.0789
     41 H         -2.363232   -11.720649   3.472632 H        1 UNL1     0.0623
     42 H         -0.717687   -12.608702   5.074419 H        1 UNL1     0.0654
     43 H         2.253997   -9.918744   3.530852 H        1 UNL1     0.0654
     44 H         0.66278   -9.047672   1.913688 H        1 UNL1     0.0623
     45 H         2.564166   -11.326417   5.265248 H        1 UNL1     0.2921
     46 H         -3.301785   -4.902725   4.858791 H        1 UNL1     0.2922
     47 H         2.582548   -2.213073   0.412914 H        1 UNL1     0.2126
     48 H         -1.403741   -0.234822   -2.055878 H        1 UNL1     0.2101
     49 H         -2.688698   -1.414256   1.548671 H        1 UNL1     0.2100
     50 H         -2.603051   -3.829687   -2.05196 H        1 UNL1     0.2102
@<TRIPOS>BOND
     1     1     2    1
     2     1     6    1
     3     2     3    1
     4     3     4    1
     5     3    29    1
     6     3    33    1
     7     4     5    1
     8     5     6    1
     9     5     7    1
    10     5    35    1
    11     7     8    1
    12     8     9   ar
    13     8    13   ar
    14     9    10   ar
    15     9    36    1
    16    10    11   ar
    17    10    26    1
    18    11    12   ar
    19    11    14    1
    20    12    13   ar
    21    12    17    1
    22    13    37    1
    23    14    15    1
    24    14    25    2
    25    15    16    1
    26    15    38    1
    27    15    39    1
    28    16    17    1
    29    16    18    1
    30    16    40    1
    31    18    19   ar
    32    18    23   ar
    33    19    20   ar
    34    19    41    1
    35    20    21   ar
    36    20    42    1
    37    21    22   ar
    38    21    24    1
    39    22    23   ar
    40    22    43    1
    41    23    44    1
    42    24    45    1
    43    26    46    1
    44    27    47    1
    45    28    48    1
    46    29    49    1
    47    30    50    1
    48     1    31    1
    49     1    27    1
    50     2    32    1
    51     2    28    1
    52     4    34    1
    53     4    30    1
