@<TRIPOS>MOLECULE
*****
 50 53 0 0 0
SMALL
GASTEIGER

@<TRIPOS>ATOM
     1 C         -0.331957   -1.328463   1.701704 C.3        1 UNL1     0.1889
     2 C         -0.462485   -0.975396   0.195634 C.3        1 UNL1     0.1342
     3 C         -1.903345   -0.96275   -0.337496 C.3        1 UNL1     0.1174
     4 C         -2.789658   -2.022034   0.322415 C.3        1 UNL1     0.1456
     5 C         -2.637969   -2.047512   1.854311 C.3        1 UNL1     0.2326
     6 O         -1.273065   -2.265676   2.20404 O.3        1 UNL1     -0.3076
     7 O         -3.212817   -0.900498   2.506408 O.3        1 UNL1     -0.4605
     8 C         -3.72229   -1.116001   3.774289 C.ar        1 UNL1     0.1310
     9 C         -4.538492   -2.189045   4.148041 C.ar        1 UNL1     0.0226
     10 C         -4.991208   -2.329476   5.465322 C.ar        1 UNL1     0.1343
     11 C         -4.61878   -1.412307   6.447127 C.ar        1 UNL1     0.1007
     12 C         -3.837773   -0.314166   6.077128 C.ar        1 UNL1     0.1389
     13 C         -3.384877   -0.171753   4.751974 C.ar        1 UNL1     0.0229
     14 C         -4.999173   -1.558182   7.871267 C.2        1 UNL1     0.1740
     15 C         -4.330132   -0.6099   8.822421 C.3        1 UNL1     0.0520
     16 C         -4.261064   0.762093   8.166049 C.3        1 UNL1     0.1322
     17 O         -3.502706   0.705314   6.937742 O.3        1 UNL1     -0.4828
     18 C         -5.620389   1.454405   8.040897 C.ar        1 UNL1     -0.0067
     19 C         -5.999755   2.017208   6.804956 C.ar        1 UNL1     -0.0516
     20 C         -7.215104   2.69864   6.668801 C.ar        1 UNL1     -0.0198
     21 C         -8.05461   2.830181   7.760476 C.ar        1 UNL1     0.1169
     22 C         -7.724031   2.257987   8.982012 C.ar        1 UNL1     -0.0198
     23 C         -6.517224   1.560603   9.113652 C.ar        1 UNL1     -0.0516
     24 O         -9.212394   3.533091   7.599687 O.3        1 UNL1     -0.5068
     25 O         -5.747816   -2.439937   8.284215 O.2        1 UNL1     -0.2917
     26 O         -5.785381   -3.397854   5.764391 O.3        1 UNL1     -0.5058
     27 O         -0.226548   -0.190319   2.542123 O.3        1 UNL1     -0.3648
     28 O         0.267955   -1.953799   -0.567184 O.3        1 UNL1     -0.3841
     29 O         -2.460711   0.350891   -0.26119 O.3        1 UNL1     -0.3863
     30 O         -2.442206   -3.322803   -0.200047 O.3        1 UNL1     -0.3829
     31 H         0.628688   -1.84139   1.820649 H        1 UNL1     0.0937
     32 H         0.0   0.0   0.0 H        1 UNL1     0.0671
     33 H         -1.866401   -1.202204   -1.409418 H        1 UNL1     0.0649
     34 H         -3.839784   -1.843618   0.065892 H        1 UNL1     0.0683
     35 H         -3.192718   -2.943375   2.160192 H        1 UNL1     0.1085
     36 H         -4.817019   -2.965754   3.444289 H        1 UNL1     0.0691
     37 H         -2.77895   0.692729   4.489264 H        1 UNL1     0.0691
     38 H         -3.327718   -0.999966   9.028675 H        1 UNL1     0.0385
     39 H         -4.890112   -0.590901   9.763612 H        1 UNL1     0.0385
     40 H         -3.666056   1.407308   8.82649 H        1 UNL1     0.0789
     41 H         -5.354146   1.935529   5.935377 H        1 UNL1     0.0623
     42 H         -7.490929   3.138503   5.713576 H        1 UNL1     0.0654
     43 H         -8.381044   2.342043   9.839438 H        1 UNL1     0.0654
     44 H         -6.295829   1.117257   10.079713 H        1 UNL1     0.0623
     45 H         -8.986486   4.440658   7.338909 H        1 UNL1     0.2921
     46 H         -5.381243   -3.910478   6.482236 H        1 UNL1     0.2922
     47 H         0.516444   0.363406   2.264253 H        1 UNL1     0.2126
     48 H         1.200893   -1.888043   -0.286051 H        1 UNL1     0.2101
     49 H         -2.02185   0.933291   -0.901506 H        1 UNL1     0.2100
     50 H         -2.675512   -3.337759   -1.151392 H        1 UNL1     0.2102
@<TRIPOS>BOND
     1     1     2    1
     2     1     6    1
     3     2     3    1
     4     3     4    1
     5     3    29    1
     6     3    33    1
     7     4     5    1
     8     5     6    1
     9     5     7    1
    10     5    35    1
    11     7     8    1
    12     8     9   ar
    13     8    13   ar
    14     9    10   ar
    15     9    36    1
    16    10    11   ar
    17    10    26    1
    18    11    12   ar
    19    11    14    1
    20    12    13   ar
    21    12    17    1
    22    13    37    1
    23    14    15    1
    24    14    25    2
    25    15    16    1
    26    15    38    1
    27    15    39    1
    28    16    17    1
    29    16    18    1
    30    16    40    1
    31    18    19   ar
    32    18    23   ar
    33    19    20   ar
    34    19    41    1
    35    20    21   ar
    36    20    42    1
    37    21    22   ar
    38    21    24    1
    39    22    23   ar
    40    22    43    1
    41    23    44    1
    42    24    45    1
    43    26    46    1
    44    27    47    1
    45    28    48    1
    46    29    49    1
    47    30    50    1
    48     1    31    1
    49     1    27    1
    50     2    32    1
    51     2    28    1
    52     4    34    1
    53     4    30    1
