@<TRIPOS>MOLECULE
*****
 50 53 0 0 0
SMALL
GASTEIGER

@<TRIPOS>ATOM
     1 C         -0.335189   -1.329766   1.700051 C.3        1 UNL1     0.1889
     2 C         -0.464152   -0.974875   0.194275 C.3        1 UNL1     0.1342
     3 C         -1.904633   -0.959385   -0.339804 C.3        1 UNL1     0.1174
     4 C         -2.793056   -2.017979   0.318376 C.3        1 UNL1     0.1456
     5 C         -2.642434   -2.045343   1.850344 C.3        1 UNL1     0.2326
     6 O         -1.27811   -2.266034   2.20075 O.3        1 UNL1     -0.3076
     7 O         -3.21591   -0.898126   2.50329 O.3        1 UNL1     -0.4605
     8 C         -3.726996   -1.114293   3.770409 C.ar        1 UNL1     0.1310
     9 C         -4.545438   -2.186364   4.142047 C.ar        1 UNL1     0.0226
     10 C         -4.999684   -2.327619   5.458713 C.ar        1 UNL1     0.1343
     11 C         -4.62661   -1.41231   6.442006 C.ar        1 UNL1     0.1007
     12 C         -3.843323   -0.315084   6.074119 C.ar        1 UNL1     0.1389
     13 C         -3.388886   -0.171837   4.749582 C.ar        1 UNL1     0.0229
     14 C         -5.008647   -1.559266   7.865595 C.2        1 UNL1     0.1740
     15 C         -4.338878   -0.613325   8.818565 C.3        1 UNL1     0.0520
     16 C         -4.266769   0.759349   8.163948 C.3        1 UNL1     0.1322
     17 O         -3.507313   0.702751   6.936311 O.3        1 UNL1     -0.4828
     18 C         -5.624758   1.454193   8.038323 C.ar        1 UNL1     -0.0067
     19 C         -6.001144   2.020809   6.803214 C.ar        1 UNL1     -0.0516
     20 C         -7.215157   2.704567   6.666798 C.ar        1 UNL1     -0.0198
     21 C         -8.056272   2.834647   7.757409 C.ar        1 UNL1     0.1169
     22 C         -7.728664   2.258757   8.978008 C.ar        1 UNL1     -0.0198
     23 C         -6.523212   1.559073   9.109853 C.ar        1 UNL1     -0.0516
     24 O         -9.212644   3.539853   7.596511 O.3        1 UNL1     -0.5068
     25 O         -5.759234   -2.440216   8.276731 O.2        1 UNL1     -0.2917
     26 O         -5.796016   -3.394972   5.755696 O.3        1 UNL1     -0.5058
     27 O         -0.228551   -0.192694   2.541764 O.3        1 UNL1     -0.3648
     28 O         0.265256   -1.953608   -0.569107 O.3        1 UNL1     -0.3841
     29 O         -2.45998   0.35505   -0.262456 O.3        1 UNL1     -0.3863
     30 O         -2.447304   -3.318732   -0.205253 O.3        1 UNL1     -0.3829
     31 H         0.624566   -1.844334   1.819086 H        1 UNL1     0.0937
     32 H         0.0   0.0   0.0 H        1 UNL1     0.0671
     33 H         -1.867348   -1.197745   -1.411958 H        1 UNL1     0.0649
     34 H         -3.842727   -1.837633   0.061343 H        1 UNL1     0.0683
     35 H         -3.198798   -2.940659   2.15489 H        1 UNL1     0.1085
     36 H         -4.824637   -2.96172   3.43707 H        1 UNL1     0.0691
     37 H         -2.781192   0.691904   4.488524 H        1 UNL1     0.0691
     38 H         -3.337349   -1.005398   9.025316 H        1 UNL1     0.0385
     39 H         -4.899741   -0.594501   9.759233 H        1 UNL1     0.0385
     40 H         -3.671278   1.402711   8.82576 H        1 UNL1     0.0789
     41 H         -5.354216   1.940332   5.934504 H        1 UNL1     0.0623
     42 H         -7.488671   3.147349   5.712258 H        1 UNL1     0.0654
     43 H         -8.386973   2.341661   9.834552 H        1 UNL1     0.0654
     44 H         -6.304152   1.112867   10.075129 H        1 UNL1     0.0623
     45 H         -8.984829   4.447724   7.338463 H        1 UNL1     0.2921
     46 H         -5.393562   -3.909086   6.473421 H        1 UNL1     0.2922
     47 H         0.515499   0.360158   2.264987 H        1 UNL1     0.2126
     48 H         1.198108   -1.889625   -0.287279 H        1 UNL1     0.2101
     49 H         -2.019892   0.937402   -0.901974 H        1 UNL1     0.2100
     50 H         -2.679995   -3.332298   -1.156769 H        1 UNL1     0.2102
@<TRIPOS>BOND
     1     1     2    1
     2     1     6    1
     3     2     3    1
     4     3     4    1
     5     3    29    1
     6     3    33    1
     7     4     5    1
     8     5     6    1
     9     5     7    1
    10     5    35    1
    11     7     8    1
    12     8     9   ar
    13     8    13   ar
    14     9    10   ar
    15     9    36    1
    16    10    11   ar
    17    10    26    1
    18    11    12   ar
    19    11    14    1
    20    12    13   ar
    21    12    17    1
    22    13    37    1
    23    14    15    1
    24    14    25    2
    25    15    16    1
    26    15    38    1
    27    15    39    1
    28    16    17    1
    29    16    18    1
    30    16    40    1
    31    18    19   ar
    32    18    23   ar
    33    19    20   ar
    34    19    41    1
    35    20    21   ar
    36    20    42    1
    37    21    22   ar
    38    21    24    1
    39    22    23   ar
    40    22    43    1
    41    23    44    1
    42    24    45    1
    43    26    46    1
    44    27    47    1
    45    28    48    1
    46    29    49    1
    47    30    50    1
    48     1    31    1
    49     1    27    1
    50     2    32    1
    51     2    28    1
    52     4    34    1
    53     4    30    1
