@<TRIPOS>MOLECULE
*****
 50 53 0 0 0
SMALL
GASTEIGER

@<TRIPOS>ATOM
     1 C         -0.329965   -1.327237   1.703047 C.3        1 UNL1     0.1889
     2 C         -0.461507   -0.97564   0.196722 C.3        1 UNL1     0.1342
     3 C         -1.902623   -0.964783   -0.335756 C.3        1 UNL1     0.1174
     4 C         -2.787668   -2.024281   0.325514 C.3        1 UNL1     0.1456
     5 C         -2.635252   -2.048246   1.857362 C.3        1 UNL1     0.2326
     6 O         -1.269989   -2.264854   2.206658 O.3        1 UNL1     -0.3076
     7 O         -3.210843   -0.90117   2.508694 O.3        1 UNL1     -0.4605
     8 C         -3.719537   -1.115999   3.777003 C.ar        1 UNL1     0.1310
     9 C         -4.53459   -2.189449   4.152093 C.ar        1 UNL1     0.0226
     10 C         -4.986572   -2.329109   5.469709 C.ar        1 UNL1     0.1343
     11 C         -4.614527   -1.410721   6.450518 C.ar        1 UNL1     0.1007
     12 C         -3.83469   -0.312203   6.079175 C.ar        1 UNL1     0.1389
     13 C         -3.382534   -0.170567   4.753685 C.ar        1 UNL1     0.0229
     14 C         -4.994132   -1.555664   7.874964 C.2        1 UNL1     0.1740
     15 C         -4.325518   -0.60592   8.824959 C.3        1 UNL1     0.0520
     16 C         -4.258   0.765545   8.167324 C.3        1 UNL1     0.1322
     17 O         -3.500155   0.708354   6.938719 O.3        1 UNL1     -0.4828
     18 C         -5.618012   1.456508   8.042177 C.ar        1 UNL1     -0.0067
     19 C         -5.998458   2.017856   6.805907 C.ar        1 UNL1     -0.0516
     20 C         -7.21449   2.69806   6.6697 C.ar        1 UNL1     -0.0198
     21 C         -8.053612   2.829816   7.761643 C.ar        1 UNL1     0.1169
     22 C         -7.721951   2.259021   8.98354 C.ar        1 UNL1     -0.0198
     23 C         -6.51445   1.562853   9.11525 C.ar        1 UNL1     -0.0516
     24 O         -9.212109   3.531529   7.600757 O.3        1 UNL1     -0.5068
     25 O         -5.741783   -2.437728   8.289048 O.2        1 UNL1     -0.2917
     26 O         -5.779635   -3.39794   5.770102 O.3        1 UNL1     -0.5058
     27 O         -0.225206   -0.188243   2.542396 O.3        1 UNL1     -0.3648
     28 O         0.269472   -1.954062   -0.565555 O.3        1 UNL1     -0.3841
     29 O         -2.46115   0.348418   -0.260371 O.3        1 UNL1     -0.3863
     30 O         -2.439272   -3.325201   -0.195941 O.3        1 UNL1     -0.3829
     31 H         0.6312   -1.839182   1.82201 H        1 UNL1     0.0937
     32 H         0.0   0.0   0.0 H        1 UNL1     0.0671
     33 H         -1.865954   -1.205166   -1.407479 H        1 UNL1     0.0649
     34 H         -3.838074   -1.847051   0.069315 H        1 UNL1     0.0683
     35 H         -3.189044   -2.944338   2.164302 H        1 UNL1     0.1085
     36 H         -4.812734   -2.967042   3.449167 H        1 UNL1     0.0691
     37 H         -2.777514   0.69423   4.48992 H        1 UNL1     0.0691
     38 H         -3.322654   -0.994889   9.031101 H        1 UNL1     0.0385
     39 H         -4.885082   -0.586586   9.76639 H        1 UNL1     0.0385
     40 H         -3.663276   1.411894   8.826912 H        1 UNL1     0.0789
     41 H         -5.353176   1.935984   5.936104 H        1 UNL1     0.0623
     42 H         -7.491154   3.136814   5.714209 H        1 UNL1     0.0654
     43 H         -8.378647   2.343248   9.841193 H        1 UNL1     0.0654
     44 H         -6.292207   1.120575   10.081606 H        1 UNL1     0.0623
     45 H         -8.987169   4.438875   7.338381 H        1 UNL1     0.2921
     46 H         -5.374269   -3.910037   6.48763 H        1 UNL1     0.2922
     47 H         0.51726   0.365819   2.263794 H        1 UNL1     0.2126
     48 H         1.202359   -1.887694   -0.284398 H        1 UNL1     0.2101
     49 H         -2.023113   0.930642   -0.901412 H        1 UNL1     0.2100
     50 H         -2.673002   -3.341223   -1.147164 H        1 UNL1     0.2102
@<TRIPOS>BOND
     1     1     2    1
     2     1     6    1
     3     2     3    1
     4     3     4    1
     5     3    29    1
     6     3    33    1
     7     4     5    1
     8     5     6    1
     9     5     7    1
    10     5    35    1
    11     7     8    1
    12     8     9   ar
    13     8    13   ar
    14     9    10   ar
    15     9    36    1
    16    10    11   ar
    17    10    26    1
    18    11    12   ar
    19    11    14    1
    20    12    13   ar
    21    12    17    1
    22    13    37    1
    23    14    15    1
    24    14    25    2
    25    15    16    1
    26    15    38    1
    27    15    39    1
    28    16    17    1
    29    16    18    1
    30    16    40    1
    31    18    19   ar
    32    18    23   ar
    33    19    20   ar
    34    19    41    1
    35    20    21   ar
    36    20    42    1
    37    21    22   ar
    38    21    24    1
    39    22    23   ar
    40    22    43    1
    41    23    44    1
    42    24    45    1
    43    26    46    1
    44    27    47    1
    45    28    48    1
    46    29    49    1
    47    30    50    1
    48     1    31    1
    49     1    27    1
    50     2    32    1
    51     2    28    1
    52     4    34    1
    53     4    30    1
