@<TRIPOS>MOLECULE
*****
 50 53 0 0 0
SMALL
GASTEIGER

@<TRIPOS>ATOM
     1 C         -0.336924   -1.331153   1.698622 C.3        1 UNL1     0.1889
     2 C         -0.46491   -0.974743   0.193122 C.3        1 UNL1     0.1342
     3 C         -1.905119   -0.957764   -0.341645 C.3        1 UNL1     0.1174
     4 C         -2.794584   -2.016379   0.315094 C.3        1 UNL1     0.1456
     5 C         -2.644729   -2.045302   1.847109 C.3        1 UNL1     0.2326
     6 O         -1.280726   -2.267254   2.19797 O.3        1 UNL1     -0.3076
     7 O         -3.217743   -0.898315   2.500865 O.3        1 UNL1     -0.4605
     8 C         -3.729595   -1.115339   3.767529 C.ar        1 UNL1     0.1310
     9 C         -3.743879   -2.34416   4.43618 C.ar        1 UNL1     0.0226
     10 C         -4.270846   -2.459046   5.728081 C.ar        1 UNL1     0.1343
     11 C         -4.775155   -1.34194   6.392602 C.ar        1 UNL1     0.1007
     12 C         -4.803789   -0.117659   5.719473 C.ar        1 UNL1     0.1389
     13 C         -4.276281   -0.002942   4.419471 C.ar        1 UNL1     0.0229
     14 C         -5.266995   -1.389581   7.789018 C.2        1 UNL1     0.1740
     15 C         -5.562443   -0.060169   8.419038 C.3        1 UNL1     0.0520
     16 C         -6.236105   0.826109   7.380458 C.3        1 UNL1     0.1322
     17 O         -5.374988   1.021672   6.237085 O.3        1 UNL1     -0.4828
     18 C         -7.662764   0.393651   7.033542 C.ar        1 UNL1     -0.0067
     19 C         -8.042176   0.27979   5.680289 C.ar        1 UNL1     -0.0516
     20 C         -9.351969   -0.067317   5.328263 C.ar        1 UNL1     -0.0198
     21 C         -10.291415   -0.295388   6.317834 C.ar        1 UNL1     0.1169
     22 C         -9.939572   -0.223718   7.659441 C.ar        1 UNL1     -0.0198
     23 C         -8.625181   0.105318   8.011812 C.ar        1 UNL1     -0.0516
     24 O         -11.566509   -0.594204   5.936724 O.3        1 UNL1     -0.5068
     25 O         -5.359281   -2.428055   8.438278 O.2        1 UNL1     -0.2917
     26 O         -4.255904   -3.686126   6.324432 O.3        1 UNL1     -0.5058
     27 O         -0.229923   -0.194954   2.541468 O.3        1 UNL1     -0.3648
     28 O         0.264204   -1.953246   -0.570835 O.3        1 UNL1     -0.3841
     29 O         -2.459609   0.356975   -0.263319 O.3        1 UNL1     -0.3863
     30 O         -2.449461   -3.316868   -0.209603 O.3        1 UNL1     -0.3829
     31 H         0.622422   -1.846488   1.817636 H        1 UNL1     0.0937
     32 H         0.0   0.0   0.0 H        1 UNL1     0.0671
     33 H         -1.867473   -1.19513   -1.414007 H        1 UNL1     0.0649
     34 H         -3.844007   -1.835073   0.057721 H        1 UNL1     0.0683
     35 H         -3.201851   -2.940527   2.150532 H        1 UNL1     0.1085
     36 H         -3.316012   -3.23803   3.995672 H        1 UNL1     0.0691
     37 H         -4.311478   0.961137   3.916673 H        1 UNL1     0.0691
     38 H         -4.610081   0.369782   8.747176 H        1 UNL1     0.0385
     39 H         -6.191055   -0.213579   9.302832 H        1 UNL1     0.0385
     40 H         -6.335288   1.826213   7.823712 H        1 UNL1     0.0789
     41 H         -7.325686   0.462692   4.884777 H        1 UNL1     0.0623
     42 H         -9.635285   -0.140286   4.281162 H        1 UNL1     0.0654
     43 H         -10.663547   -0.415093   8.442477 H        1 UNL1     0.0654
     44 H         -8.38266   0.142009   9.06949 H        1 UNL1     0.0623
     45 H         -11.916339   0.15248   5.424084 H        1 UNL1     0.2921
     46 H         -3.782951   -3.629288   7.169712 H        1 UNL1     0.2922
     47 H         0.512949   0.359072   2.263881 H        1 UNL1     0.2126
     48 H         1.199744   -1.878468   -0.300821 H        1 UNL1     0.2101
     49 H         -2.018813   0.939635   -0.902067 H        1 UNL1     0.2100
     50 H         -2.681697   -3.329371   -1.161245 H        1 UNL1     0.2102
@<TRIPOS>BOND
     1     1     2    1
     2     1     6    1
     3     2     3    1
     4     3     4    1
     5     3    29    1
     6     3    33    1
     7     4     5    1
     8     5     6    1
     9     5     7    1
    10     5    35    1
    11     7     8    1
    12     8     9   ar
    13     8    13   ar
    14     9    10   ar
    15     9    36    1
    16    10    11   ar
    17    10    26    1
    18    11    12   ar
    19    11    14    1
    20    12    13   ar
    21    12    17    1
    22    13    37    1
    23    14    15    1
    24    14    25    2
    25    15    16    1
    26    15    38    1
    27    15    39    1
    28    16    17    1
    29    16    18    1
    30    16    40    1
    31    18    19   ar
    32    18    23   ar
    33    19    20   ar
    34    19    41    1
    35    20    21   ar
    36    20    42    1
    37    21    22   ar
    38    21    24    1
    39    22    23   ar
    40    22    43    1
    41    23    44    1
    42    24    45    1
    43    26    46    1
    44    27    47    1
    45    28    48    1
    46    29    49    1
    47    30    50    1
    48     1    31    1
    49     1    27    1
    50     2    32    1
    51     2    28    1
    52     4    34    1
    53     4    30    1
