@<TRIPOS>MOLECULE
*****
 50 53 0 0 0
SMALL
GASTEIGER

@<TRIPOS>ATOM
     1 C         -2.167644   -0.234569   -0.130768 C.3        1 UNL1     0.1889
     2 C         -0.781167   0.049457   -0.768696 C.3        1 UNL1     0.1342
     3 C         -0.6768   1.394758   -1.503364 C.3        1 UNL1     0.1174
     4 C         -1.981202   1.794744   -2.197384 C.3        1 UNL1     0.1456
     5 C         -3.211664   1.616287   -1.289376 C.3        1 UNL1     0.2326
     6 O         -3.2919   0.265759   -0.83937 O.3        1 UNL1     -0.3076
     7 O         -3.277028   2.574661   -0.217664 O.3        1 UNL1     -0.4605
     8 C         -4.54667   2.938803   0.193355 C.ar        1 UNL1     0.1310
     9 C         -5.607844   3.274119   -0.654451 C.ar        1 UNL1     0.0226
     10 C         -6.865104   3.613709   -0.140761 C.ar        1 UNL1     0.1343
     11 C         -7.098508   3.60309   1.23374 C.ar        1 UNL1     0.1007
     12 C         -6.035476   3.309824   2.092077 C.ar        1 UNL1     0.1389
     13 C         -4.770693   2.970975   1.575418 C.ar        1 UNL1     0.0229
     14 C         -8.429034   3.871813   1.826734 C.2        1 UNL1     0.1740
     15 C         -8.551393   3.599803   3.297308 C.3        1 UNL1     0.0520
     16 C         -7.277385   4.074282   3.982676 C.3        1 UNL1     0.1322
     17 O         -6.124777   3.375193   3.463215 O.3        1 UNL1     -0.4828
     18 C         -7.130291   5.597242   4.02367 C.ar        1 UNL1     -0.0067
     19 C         -5.912894   6.186407   3.624869 C.ar        1 UNL1     -0.0516
     20 C         -5.728723   7.572454   3.694992 C.ar        1 UNL1     -0.0198
     21 C         -6.749359   8.377689   4.167987 C.ar        1 UNL1     0.1169
     22 C         -7.971366   7.830243   4.536554 C.ar        1 UNL1     -0.0198
     23 C         -8.162233   6.446054   4.449123 C.ar        1 UNL1     -0.0516
     24 O         -6.520243   9.719275   4.257733 O.3        1 UNL1     -0.5068
     25 O         -9.405867   4.217349   1.167275 O.2        1 UNL1     -0.2917
     26 O         -7.857584   3.931867   -1.021297 O.3        1 UNL1     -0.5058
     27 O         -2.231979   0.088737   1.249131 O.3        1 UNL1     -0.3648
     28 O         -0.500124   -0.985881   -1.728798 O.3        1 UNL1     -0.3841
     29 O         -0.179646   2.411629   -0.631044 O.3        1 UNL1     -0.3863
     30 O         -2.156032   0.984978   -3.380348 O.3        1 UNL1     -0.3829
     31 H         -2.308973   -1.320498   -0.160166 H        1 UNL1     0.0937
     32 H         0.0   0.0   0.0 H        1 UNL1     0.0671
     33 H         0.082571   1.288868   -2.290679 H        1 UNL1     0.0649
     34 H         -1.924181   2.837625   -2.528364 H        1 UNL1     0.0683
     35 H         -4.062844   1.779372   -1.962262 H        1 UNL1     0.1085
     36 H         -5.505951   3.246684   -1.733796 H        1 UNL1     0.0691
     37 H         -3.959294   2.747795   2.264849 H        1 UNL1     0.0691
     38 H         -8.689742   2.520775   3.424134 H        1 UNL1     0.0385
     39 H         -9.442503   4.106589   3.683144 H        1 UNL1     0.0385
     40 H         -7.338676   3.759874   5.033348 H        1 UNL1     0.0789
     41 H         -5.093183   5.575183   3.25863 H        1 UNL1     0.0623
     42 H         -4.781182   8.013632   3.395759 H        1 UNL1     0.0654
     43 H         -8.782565   8.453137   4.894142 H        1 UNL1     0.0654
     44 H         -9.133243   6.053598   4.735415 H        1 UNL1     0.0623
     45 H         -5.776538   9.863446   4.86505 H        1 UNL1     0.2921
     46 H         -8.618803   3.348171   -0.875499 H        1 UNL1     0.2922
     47 H         -1.539437   -0.379998   1.735477 H        1 UNL1     0.2126
     48 H         -0.477158   -1.827486   -1.233918 H        1 UNL1     0.2101
     49 H         0.753066   2.241628   -0.423819 H        1 UNL1     0.2100
     50 H         -1.440715   1.212452   -4.009863 H        1 UNL1     0.2102
@<TRIPOS>BOND
     1     1     2    1
     2     1     6    1
     3     2     3    1
     4     3     4    1
     5     3    29    1
     6     3    33    1
     7     4     5    1
     8     5     6    1
     9     5     7    1
    10     5    35    1
    11     7     8    1
    12     8     9   ar
    13     8    13   ar
    14     9    10   ar
    15     9    36    1
    16    10    11   ar
    17    10    26    1
    18    11    12   ar
    19    11    14    1
    20    12    13   ar
    21    12    17    1
    22    13    37    1
    23    14    15    1
    24    14    25    2
    25    15    16    1
    26    15    38    1
    27    15    39    1
    28    16    17    1
    29    16    18    1
    30    16    40    1
    31    18    19   ar
    32    18    23   ar
    33    19    20   ar
    34    19    41    1
    35    20    21   ar
    36    20    42    1
    37    21    22   ar
    38    21    24    1
    39    22    23   ar
    40    22    43    1
    41    23    44    1
    42    24    45    1
    43    26    46    1
    44    27    47    1
    45    28    48    1
    46    29    49    1
    47    30    50    1
    48     1    31    1
    49     1    27    1
    50     2    32    1
    51     2    28    1
    52     4    34    1
    53     4    30    1
