@<TRIPOS>MOLECULE
*****
 50 53 0 0 0
SMALL
GASTEIGER

@<TRIPOS>ATOM
     1 C         1.803363   -0.815487   -0.923942 C.3        1 UNL1     0.1889
     2 C         0.278695   -0.850857   -0.633982 C.3        1 UNL1     0.1342
     3 C         -0.219545   -2.148225   0.021044 C.3        1 UNL1     0.1174
     4 C         0.538316   -3.386759   -0.463515 C.3        1 UNL1     0.1456
     5 C         2.063819   -3.179107   -0.472855 C.3        1 UNL1     0.2326
     6 O         2.396335   -2.054546   -1.283819 O.3        1 UNL1     -0.3076
     7 O         2.642092   -3.118135   0.843657 O.3        1 UNL1     -0.4605
     8 C         2.319701   -4.158719   1.696169 C.ar        1 UNL1     0.1310
     9 C         2.730145   -5.487541   1.54429 C.ar        1 UNL1     0.0226
     10 C         2.36441   -6.468694   2.473526 C.ar        1 UNL1     0.1343
     11 C         1.59842   -6.139786   3.591077 C.ar        1 UNL1     0.1007
     12 C         1.148238   -4.824374   3.731831 C.ar        1 UNL1     0.1389
     13 C         1.51391   -3.838555   2.795949 C.ar        1 UNL1     0.0229
     14 C         1.25377   -7.119016   4.647713 C.2        1 UNL1     0.1740
     15 C         0.619184   -6.546837   5.881187 C.3        1 UNL1     0.0520
     16 C         -0.369584   -5.469004   5.45861 C.3        1 UNL1     0.1322
     17 O         0.300605   -4.413789   4.73443 O.3        1 UNL1     -0.4828
     18 C         -1.620563   -6.017121   4.76771 C.ar        1 UNL1     -0.0067
     19 C         -1.677998   -7.382605   4.420769 C.ar        1 UNL1     -0.0516
     20 C         -2.787155   -7.906213   3.745811 C.ar        1 UNL1     -0.0198
     21 C         -3.839683   -7.075054   3.406421 C.ar        1 UNL1     0.1169
     22 C         -3.827066   -5.733108   3.764 C.ar        1 UNL1     -0.0198
     23 C         -2.726203   -5.213178   4.455252 C.ar        1 UNL1     -0.0516
     24 O         -4.885998   -7.612518   2.715945 O.3        1 UNL1     -0.5068
     25 O         1.53096   -8.313553   4.578918 O.2        1 UNL1     -0.2917
     26 O         2.796491   -7.746277   2.266957 O.3        1 UNL1     -0.5058
     27 O         2.553896   -0.146884   0.077286 O.3        1 UNL1     -0.3648
     28 O         -0.426218   -0.702175   -1.880456 O.3        1 UNL1     -0.3841
     29 O         -0.22813   -2.026521   1.444858 O.3        1 UNL1     -0.3863
     30 O         0.106135   -3.712895   -1.802375 O.3        1 UNL1     -0.3829
     31 H         1.937363   -0.197996   -1.818832 H        1 UNL1     0.0937
     32 H         0.0   0.0   0.0 H        1 UNL1     0.0671
     33 H         -1.271218   -2.286546   -0.266309 H        1 UNL1     0.0649
     34 H         0.29421   -4.246364   0.170434 H        1 UNL1     0.0683
     35 H         2.448686   -4.068428   -0.987505 H        1 UNL1     0.1085
     36 H         3.373242   -5.795866   0.727294 H        1 UNL1     0.0691
     37 H         1.149504   -2.822008   2.927601 H        1 UNL1     0.0691
     38 H         1.418952   -6.127956   6.501216 H        1 UNL1     0.0385
     39 H         0.136978   -7.353435   6.443909 H        1 UNL1     0.0385
     40 H         -0.732446   -4.98515   6.375527 H        1 UNL1     0.0789
     41 H         -0.860633   -8.053813   4.66784 H        1 UNL1     0.0623
     42 H         -2.814339   -8.958348   3.473257 H        1 UNL1     0.0654
     43 H         -4.652658   -5.076582   3.516448 H        1 UNL1     0.0654
     44 H         -2.754603   -4.162655   4.728091 H        1 UNL1     0.0623
     45 H         -5.322739   -6.90198   2.218843 H        1 UNL1     0.2921
     46 H         2.534554   -8.301812   3.018078 H        1 UNL1     0.2922
     47 H         2.588899   0.801934   -0.108131 H        1 UNL1     0.2126
     48 H         0.165147   -0.206145   -2.478765 H        1 UNL1     0.2101
     49 H         -0.273918   -2.9067   1.851039 H        1 UNL1     0.2100
     50 H         -0.820733   -4.026108   -1.752114 H        1 UNL1     0.2102
@<TRIPOS>BOND
     1     1     2    1
     2     1     6    1
     3     2     3    1
     4     3     4    1
     5     3    29    1
     6     3    33    1
     7     4     5    1
     8     5     6    1
     9     5     7    1
    10     5    35    1
    11     7     8    1
    12     8     9   ar
    13     8    13   ar
    14     9    10   ar
    15     9    36    1
    16    10    11   ar
    17    10    26    1
    18    11    12   ar
    19    11    14    1
    20    12    13   ar
    21    12    17    1
    22    13    37    1
    23    14    15    1
    24    14    25    2
    25    15    16    1
    26    15    38    1
    27    15    39    1
    28    16    17    1
    29    16    18    1
    30    16    40    1
    31    18    19   ar
    32    18    23   ar
    33    19    20   ar
    34    19    41    1
    35    20    21   ar
    36    20    42    1
    37    21    22   ar
    38    21    24    1
    39    22    23   ar
    40    22    43    1
    41    23    44    1
    42    24    45    1
    43    26    46    1
    44    27    47    1
    45    28    48    1
    46    29    49    1
    47    30    50    1
    48     1    31    1
    49     1    27    1
    50     2    32    1
    51     2    28    1
    52     4    34    1
    53     4    30    1
