@<TRIPOS>MOLECULE
*****
 50 53 0 0 0
SMALL
GASTEIGER

@<TRIPOS>ATOM
     1 C         -1.160255   -0.808967   -1.664387 C.3        1 UNL1     0.1889
     2 C         0.052246   -0.023969   -1.095563 C.3        1 UNL1     0.1342
     3 C         0.190174   1.412723   -1.622208 C.3        1 UNL1     0.1174
     4 C         -0.249963   1.554766   -3.081393 C.3        1 UNL1     0.1456
     5 C         -1.594821   0.860013   -3.362526 C.3        1 UNL1     0.2326
     6 O         -1.512886   -0.518806   -3.008951 O.3        1 UNL1     -0.3076
     7 O         -2.721489   1.530437   -2.768832 O.3        1 UNL1     -0.4605
     8 C         -3.914649   1.441449   -3.463078 C.ar        1 UNL1     0.1310
     9 C         -4.138633   1.928777   -4.755225 C.ar        1 UNL1     0.0226
     10 C         -5.381051   1.774389   -5.381693 C.ar        1 UNL1     0.1343
     11 C         -6.423444   1.107217   -4.739711 C.ar        1 UNL1     0.1007
     12 C         -6.224576   0.652334   -3.43345 C.ar        1 UNL1     0.1389
     13 C         -4.976063   0.810028   -2.802754 C.ar        1 UNL1     0.0229
     14 C         -7.729375   0.842251   -5.386619 C.2        1 UNL1     0.1740
     15 C         -8.649544   -0.077492   -4.639017 C.3        1 UNL1     0.0520
     16 C         -8.562567   0.255053   -3.155843 C.3        1 UNL1     0.1322
     17 O         -7.21389   0.078625   -2.669001 O.3        1 UNL1     -0.4828
     18 C         -9.199745   1.596902   -2.786835 C.ar        1 UNL1     -0.0067
     19 C         -9.357557   1.938199   -1.427855 C.ar        1 UNL1     -0.0516
     20 C         -9.979124   3.136125   -1.055579 C.ar        1 UNL1     -0.0198
     21 C         -10.452694   3.995837   -2.030492 C.ar        1 UNL1     0.1169
     22 C         -10.282129   3.703192   -3.377379 C.ar        1 UNL1     -0.0198
     23 C         -9.644107   2.514035   -3.750061 C.ar        1 UNL1     -0.0516
     24 O         -11.086322   5.135257   -1.629695 O.3        1 UNL1     -0.5068
     25 O         -8.032398   1.268872   -6.49777 O.2        1 UNL1     -0.2917
     26 O         -5.534709   2.273469   -6.642206 O.3        1 UNL1     -0.5058
     27 O         -2.293539   -0.794906   -0.811008 O.3        1 UNL1     -0.3648
     28 O         1.257562   -0.727424   -1.449213 O.3        1 UNL1     -0.3841
     29 O         -0.467984   2.336701   -0.753171 O.3        1 UNL1     -0.3863
     30 O         0.758723   0.977602   -3.938787 O.3        1 UNL1     -0.3829
     31 H         -0.862199   -1.862536   -1.699499 H        1 UNL1     0.0937
     32 H         0.0   0.0   0.0 H        1 UNL1     0.0671
     33 H         1.254601   1.683316   -1.58355 H        1 UNL1     0.0649
     34 H         -0.328061   2.614849   -3.346962 H        1 UNL1     0.0683
     35 H         -1.692104   0.904023   -4.454533 H        1 UNL1     0.1085
     36 H         -3.352076   2.407007   -5.328589 H        1 UNL1     0.0691
     37 H         -4.847227   0.448024   -1.784988 H        1 UNL1     0.0691
     38 H         -8.321415   -1.104155   -4.833492 H        1 UNL1     0.0385
     39 H         -9.666382   0.036462   -5.029959 H        1 UNL1     0.0385
     40 H         -9.149472   -0.502665   -2.619254 H        1 UNL1     0.0789
     41 H         -9.002597   1.276011   -0.643533 H        1 UNL1     0.0623
     42 H         -10.105516   3.382435   -0.004214 H        1 UNL1     0.0654
     43 H         -10.635737   4.376472   -4.149107 H        1 UNL1     0.0654
     44 H         -9.518458   2.322435   -4.811355 H        1 UNL1     0.0623
     45 H         -11.385557   5.013894   -0.714027 H        1 UNL1     0.2921
     46 H         -5.994269   1.62143   -7.194529 H        1 UNL1     0.2922
     47 H         -2.846033   -0.023809   -1.000802 H        1 UNL1     0.2126
     48 H         1.905446   -0.050889   -1.725398 H        1 UNL1     0.2101
     49 H         -1.348381   2.548361   -1.102306 H        1 UNL1     0.2100
     50 H         1.520404   0.721763   -3.378339 H        1 UNL1     0.2102
@<TRIPOS>BOND
     1     1     2    1
     2     1     6    1
     3     2     3    1
     4     3     4    1
     5     3    29    1
     6     3    33    1
     7     4     5    1
     8     5     6    1
     9     5     7    1
    10     5    35    1
    11     7     8    1
    12     8     9   ar
    13     8    13   ar
    14     9    10   ar
    15     9    36    1
    16    10    11   ar
    17    10    26    1
    18    11    12   ar
    19    11    14    1
    20    12    13   ar
    21    12    17    1
    22    13    37    1
    23    14    15    1
    24    14    25    2
    25    15    16    1
    26    15    38    1
    27    15    39    1
    28    16    17    1
    29    16    18    1
    30    16    40    1
    31    18    19   ar
    32    18    23   ar
    33    19    20   ar
    34    19    41    1
    35    20    21   ar
    36    20    42    1
    37    21    22   ar
    38    21    24    1
    39    22    23   ar
    40    22    43    1
    41    23    44    1
    42    24    45    1
    43    26    46    1
    44    27    47    1
    45    28    48    1
    46    29    49    1
    47    30    50    1
    48     1    31    1
    49     1    27    1
    50     2    32    1
    51     2    28    1
    52     4    34    1
    53     4    30    1
