@<TRIPOS>MOLECULE
*****
 50 53 0 0 0
SMALL
GASTEIGER

@<TRIPOS>ATOM
     1 C         -0.376706   -1.349984   1.675244 C.3        1 UNL1     0.1889
     2 C         -0.485304   -0.968307   0.174421 C.3        1 UNL1     0.1342
     3 C         -1.920442   -0.915103   -0.371486 C.3        1 UNL1     0.1174
     4 C         -2.835665   -1.966017   0.26181 C.3        1 UNL1     0.1456
     5 C         -2.699073   -2.021135   1.794346 C.3        1 UNL1     0.2326
     6 O         -1.342578   -2.274968   2.152621 O.3        1 UNL1     -0.3076
     7 O         -3.255125   -0.873253   2.461048 O.3        1 UNL1     -0.4605
     8 C         -3.79174   -1.101672   3.715399 C.ar        1 UNL1     0.1310
     9 C         -4.641787   -2.160456   4.05259 C.ar        1 UNL1     0.0226
     10 C         -5.120574   -2.316366   5.358866 C.ar        1 UNL1     0.1343
     11 C         -4.741437   -1.429961   6.366032 C.ar        1 UNL1     0.1007
     12 C         -3.925983   -0.345248   6.032541 C.ar        1 UNL1     0.1389
     13 C         -3.446828   -0.187197   4.71844 C.ar        1 UNL1     0.0229
     14 C         -5.149916   -1.59544   7.780215 C.2        1 UNL1     0.1740
     15 C         -4.472977   -0.685094   8.762342 C.3        1 UNL1     0.0520
     16 C         -4.357094   0.697991   8.136559 C.3        1 UNL1     0.1322
     17 O         -3.579453   0.646918   6.920116 O.3        1 UNL1     -0.4828
     18 C         -5.695665   1.42824   8.00356 C.ar        1 UNL1     -0.0067
     19 C         -6.031242   2.041662   6.779095 C.ar        1 UNL1     -0.0516
     20 C         -7.225923   2.757772   6.638079 C.ar        1 UNL1     -0.0198
     21 C         -8.088036   2.873722   7.713786 C.ar        1 UNL1     0.1169
     22 C         -7.801099   2.252634   8.922404 C.ar        1 UNL1     -0.0198
     23 C         -6.615237   1.520954   9.058163 C.ar        1 UNL1     -0.0516
     24 O         -9.224066   3.610665   7.550232 O.3        1 UNL1     -0.5068
     25 O         -5.928152   -2.465634   8.161785 O.2        1 UNL1     -0.2917
     26 O         -5.947198   -3.369509   5.621868 O.3        1 UNL1     -0.5058
     27 O         -0.254667   -0.229028   2.536262 O.3        1 UNL1     -0.3648
     28 O         0.230993   -1.94913   -0.598633 O.3        1 UNL1     -0.3841
     29 O         -2.449964   0.408863   -0.277406 O.3        1 UNL1     -0.3863
     30 O         -2.511497   -3.26487   -0.280025 O.3        1 UNL1     -0.3829
     31 H         0.571451   -1.885689   1.793975 H        1 UNL1     0.0937
     32 H         0.0   0.0   0.0 H        1 UNL1     0.0671
     33 H         -1.878539   -1.136836   -1.447032 H        1 UNL1     0.0649
     34 H         -3.879212   -1.760378   -0.001107 H        1 UNL1     0.0683
     35 H         -3.275938   -2.909826   2.079537 H        1 UNL1     0.1085
     36 H         -4.928209   -2.914742   3.327928 H        1 UNL1     0.0691
     37 H         -2.81427   0.666353   4.484311 H        1 UNL1     0.0691
     38 H         -3.484704   -1.105578   8.976904 H        1 UNL1     0.0385
     39 H         -5.048377   -0.671008   9.694272 H        1 UNL1     0.0385
     40 H         -3.757007   1.313445   8.820396 H        1 UNL1     0.0789
     41 H         -5.367048   1.972966   5.922487 H        1 UNL1     0.0623
     42 H         -7.467796   3.236314   5.692295 H        1 UNL1     0.0654
     43 H         -8.476341   2.324401   9.766683 H        1 UNL1     0.0654
     44 H         -6.428108   1.039942   10.013388 H        1 UNL1     0.0623
     45 H         -8.969687   4.527392   7.356275 H        1 UNL1     0.2921
     46 H         -5.569658   -3.906552   6.336333 H        1 UNL1     0.2922
     47 H         0.49021   0.324092   2.262263 H        1 UNL1     0.2126
     48 H         1.169701   -1.879146   -0.338514 H        1 UNL1     0.2101
     49 H         -1.998403   0.99058   -0.90946 H        1 UNL1     0.2100
     50 H         -2.741326   -3.260211   -1.232322 H        1 UNL1     0.2102
@<TRIPOS>BOND
     1     1     2    1
     2     1     6    1
     3     2     3    1
     4     3     4    1
     5     3    29    1
     6     3    33    1
     7     4     5    1
     8     5     6    1
     9     5     7    1
    10     5    35    1
    11     7     8    1
    12     8     9   ar
    13     8    13   ar
    14     9    10   ar
    15     9    36    1
    16    10    11   ar
    17    10    26    1
    18    11    12   ar
    19    11    14    1
    20    12    13   ar
    21    12    17    1
    22    13    37    1
    23    14    15    1
    24    14    25    2
    25    15    16    1
    26    15    38    1
    27    15    39    1
    28    16    17    1
    29    16    18    1
    30    16    40    1
    31    18    19   ar
    32    18    23   ar
    33    19    20   ar
    34    19    41    1
    35    20    21   ar
    36    20    42    1
    37    21    22   ar
    38    21    24    1
    39    22    23   ar
    40    22    43    1
    41    23    44    1
    42    24    45    1
    43    26    46    1
    44    27    47    1
    45    28    48    1
    46    29    49    1
    47    30    50    1
    48     1    31    1
    49     1    27    1
    50     2    32    1
    51     2    28    1
    52     4    34    1
    53     4    30    1
