@<TRIPOS>MOLECULE
*****
 50 53 0 0 0
SMALL
GASTEIGER

@<TRIPOS>ATOM
     1 C         -1.78335   -0.017421   -1.261017 C.3        1 UNL1     0.1889
     2 C         -0.939054   0.559542   -0.093019 C.3        1 UNL1     0.1342
     3 C         -1.651657   0.572365   1.268045 C.3        1 UNL1     0.1174
     4 C         -3.153849   0.841359   1.148964 C.3        1 UNL1     0.1456
     5 C         -3.819342   -0.003958   0.047636 C.3        1 UNL1     0.2326
     6 O         -3.179224   0.236772   -1.20343 O.3        1 UNL1     -0.3076
     7 O         -3.912533   -1.402152   0.375797 O.3        1 UNL1     -0.4605
     8 C         -3.637075   -1.73615   1.689607 C.ar        1 UNL1     0.1310
     9 C         -3.130734   -0.863209   2.658571 C.ar        1 UNL1     0.0226
     10 C         -2.900522   -1.293372   3.97077 C.ar        1 UNL1     0.1343
     11 C         -3.193789   -2.601935   4.352212 C.ar        1 UNL1     0.1007
     12 C         -3.661163   -3.49396   3.38338 C.ar        1 UNL1     0.1389
     13 C         -3.890061   -3.061895   2.063396 C.ar        1 UNL1     0.0229
     14 C         -3.049053   -3.086551   5.744459 C.2        1 UNL1     0.1740
     15 C         -3.618256   -4.447131   6.020828 C.3        1 UNL1     0.0520
     16 C         -3.299378   -5.352003   4.838677 C.3        1 UNL1     0.1322
     17 O         -3.879835   -4.830805   3.622744 O.3        1 UNL1     -0.4828
     18 C         -1.818114   -5.720964   4.727098 C.ar        1 UNL1     -0.0067
     19 C         -0.893434   -4.749777   4.291235 C.ar        1 UNL1     -0.0516
     20 C         0.460811   -5.067382   4.13278 C.ar        1 UNL1     -0.0198
     21 C         0.900629   -6.351663   4.399261 C.ar        1 UNL1     0.1169
     22 C         0.020076   -7.320838   4.862041 C.ar        1 UNL1     -0.0198
     23 C         -1.330898   -6.99854   5.038247 C.ar        1 UNL1     -0.0516
     24 O         2.219671   -6.633997   4.197233 O.3        1 UNL1     -0.5068
     25 O         -2.571838   -2.408189   6.650316 O.2        1 UNL1     -0.2917
     26 O         -2.40443   -0.392679   4.867559 O.3        1 UNL1     -0.5058
     27 O         -1.510435   -1.38233   -1.535475 O.3        1 UNL1     -0.3648
     28 O         -0.594058   1.921151   -0.408777 O.3        1 UNL1     -0.3841
     29 O         -1.359019   -0.616608   2.004821 O.3        1 UNL1     -0.3863
     30 O         -3.362702   2.239   0.851189 O.3        1 UNL1     -0.3829
     31 H         -1.464418   0.508874   -2.167314 H        1 UNL1     0.0937
     32 H         0.0   0.0   0.0 H        1 UNL1     0.0671
     33 H         -1.227544   1.394794   1.860885 H        1 UNL1     0.0649
     34 H         -3.646815   0.640503   2.106587 H        1 UNL1     0.0683
     35 H         -4.832638   0.410098   -0.027655 H        1 UNL1     0.1085
     36 H         -2.935191   0.180711   2.439221 H        1 UNL1     0.0691
     37 H         -4.253223   -3.77623   1.327644 H        1 UNL1     0.0691
     38 H         -4.699796   -4.333512   6.150779 H        1 UNL1     0.0385
     39 H         -3.199208   -4.827823   6.958512 H        1 UNL1     0.0385
     40 H         -3.823616   -6.302316   5.007786 H        1 UNL1     0.0789
     41 H         -1.215241   -3.737004   4.066773 H        1 UNL1     0.0623
     42 H         1.161926   -4.312901   3.78463 H        1 UNL1     0.0654
     43 H         0.356603   -8.325601   5.088117 H        1 UNL1     0.0654
     44 H         -1.988806   -7.777458   5.411462 H        1 UNL1     0.0623
     45 H         2.693026   -5.799079   4.050383 H        1 UNL1     0.2921
     46 H         -2.575848   -0.706313   5.769591 H        1 UNL1     0.2922
     47 H         -0.635076   -1.622577   -1.200979 H        1 UNL1     0.2126
     48 H         -0.102849   1.896762   -1.25249 H        1 UNL1     0.2101
     49 H         -0.730321   -0.417353   2.716742 H        1 UNL1     0.2100
     50 H         -3.059647   2.400353   -0.066327 H        1 UNL1     0.2102
@<TRIPOS>BOND
     1     1     2    1
     2     1     6    1
     3     2     3    1
     4     3     4    1
     5     3    29    1
     6     3    33    1
     7     4     5    1
     8     5     6    1
     9     5     7    1
    10     5    35    1
    11     7     8    1
    12     8     9   ar
    13     8    13   ar
    14     9    10   ar
    15     9    36    1
    16    10    11   ar
    17    10    26    1
    18    11    12   ar
    19    11    14    1
    20    12    13   ar
    21    12    17    1
    22    13    37    1
    23    14    15    1
    24    14    25    2
    25    15    16    1
    26    15    38    1
    27    15    39    1
    28    16    17    1
    29    16    18    1
    30    16    40    1
    31    18    19   ar
    32    18    23   ar
    33    19    20   ar
    34    19    41    1
    35    20    21   ar
    36    20    42    1
    37    21    22   ar
    38    21    24    1
    39    22    23   ar
    40    22    43    1
    41    23    44    1
    42    24    45    1
    43    26    46    1
    44    27    47    1
    45    28    48    1
    46    29    49    1
    47    30    50    1
    48     1    31    1
    49     1    27    1
    50     2    32    1
    51     2    28    1
    52     4    34    1
    53     4    30    1
