@<TRIPOS>MOLECULE
*****
 50 53 0 0 0
SMALL
GASTEIGER

@<TRIPOS>ATOM
     1 C         -0.221428   -1.563589   1.508961 C.3        1 UNL1     0.1889
     2 C         -0.811777   -0.511748   0.53169 C.3        1 UNL1     0.1342
     3 C         -1.718953   0.538267   1.19121 C.3        1 UNL1     0.1174
     4 C         -2.5357   -0.029696   2.354594 C.3        1 UNL1     0.1456
     5 C         -1.684026   -0.882086   3.31295 C.3        1 UNL1     0.2326
     6 O         -1.056163   -1.941145   2.593887 O.3        1 UNL1     -0.3076
     7 O         -0.761377   -0.1088   4.101663 O.3        1 UNL1     -0.4605
     8 C         0.07464   -0.828945   4.935926 C.ar        1 UNL1     0.1310
     9 C         0.117857   -2.224007   5.032025 C.ar        1 UNL1     0.0226
     10 C         1.01441   -2.862433   5.897188 C.ar        1 UNL1     0.1343
     11 C         1.90684   -2.121197   6.670479 C.ar        1 UNL1     0.1007
     12 C         1.845028   -0.726305   6.613583 C.ar        1 UNL1     0.1389
     13 C         0.941647   -0.084548   5.745549 C.ar        1 UNL1     0.0229
     14 C         2.931786   -2.745957   7.538417 C.2        1 UNL1     0.1740
     15 C         3.947664   -1.808299   8.1218 C.3        1 UNL1     0.0520
     16 C         3.236897   -0.5297   8.543647 C.3        1 UNL1     0.1322
     17 O         2.601478   0.101629   7.410185 O.3        1 UNL1     -0.4828
     18 C         2.329747   -0.70298   9.764211 C.ar        1 UNL1     -0.0067
     19 C         2.907022   -0.951722   11.026389 C.ar        1 UNL1     -0.0516
     20 C         2.104816   -1.162036   12.154306 C.ar        1 UNL1     -0.0198
     21 C         0.727114   -1.133499   12.032039 C.ar        1 UNL1     0.1169
     22 C         0.129501   -0.857811   10.809053 C.ar        1 UNL1     -0.0198
     23 C         0.931671   -0.629179   9.684639 C.ar        1 UNL1     -0.0516
     24 O         -0.021962   -1.3803   13.144862 O.3        1 UNL1     -0.5068
     25 O         3.016199   -3.957667   7.720405 O.2        1 UNL1     -0.2917
     26 O         1.005377   -4.225975   5.944699 O.3        1 UNL1     -0.5058
     27 O         1.094176   -1.256861   1.942424 O.3        1 UNL1     -0.3648
     28 O         -1.600984   -1.199687   -0.456539 O.3        1 UNL1     -0.3841
     29 O         -0.969186   1.698837   1.555981 O.3        1 UNL1     -0.3863
     30 O         -3.602799   -0.848648   1.828946 O.3        1 UNL1     -0.3829
     31 H         -0.107787   -2.491741   0.938261 H        1 UNL1     0.0937
     32 H         0.0   0.0   0.0 H        1 UNL1     0.0671
     33 H         -2.438915   0.881717   0.435289 H        1 UNL1     0.0649
     34 H         -3.004493   0.786162   2.91585 H        1 UNL1     0.0683
     35 H         -2.420894   -1.343834   3.982049 H        1 UNL1     0.1085
     36 H         -0.511067   -2.857734   4.416424 H        1 UNL1     0.0691
     37 H         0.912473   1.002661   5.720679 H        1 UNL1     0.0691
     38 H         4.695851   -1.607257   7.347639 H        1 UNL1     0.0385
     39 H         4.448937   -2.300027   8.96246 H        1 UNL1     0.0385
     40 H         4.01173   0.183305   8.856341 H        1 UNL1     0.0789
     41 H         3.985823   -0.988238   11.146825 H        1 UNL1     0.0623
     42 H         2.561772   -1.364702   13.119775 H        1 UNL1     0.0654
     43 H         -0.948248   -0.818207   10.705135 H        1 UNL1     0.0654
     44 H         0.431222   -0.406223   8.747257 H        1 UNL1     0.0623
     45 H         -0.812743   -0.817823   13.113214 H        1 UNL1     0.2921
     46 H         0.202704   -4.559402   5.513476 H        1 UNL1     0.2922
     47 H         1.134299   -0.348964   2.274045 H        1 UNL1     0.2126
     48 H         -2.127537   -0.5186   -0.917619 H        1 UNL1     0.2101
     49 H         -1.256606   2.017266   2.42649 H        1 UNL1     0.2100
     50 H         -4.237647   -0.259385   1.371289 H        1 UNL1     0.2102
@<TRIPOS>BOND
     1     1     2    1
     2     1     6    1
     3     2     3    1
     4     3     4    1
     5     3    29    1
     6     3    33    1
     7     4     5    1
     8     5     6    1
     9     5     7    1
    10     5    35    1
    11     7     8    1
    12     8     9   ar
    13     8    13   ar
    14     9    10   ar
    15     9    36    1
    16    10    11   ar
    17    10    26    1
    18    11    12   ar
    19    11    14    1
    20    12    13   ar
    21    12    17    1
    22    13    37    1
    23    14    15    1
    24    14    25    2
    25    15    16    1
    26    15    38    1
    27    15    39    1
    28    16    17    1
    29    16    18    1
    30    16    40    1
    31    18    19   ar
    32    18    23   ar
    33    19    20   ar
    34    19    41    1
    35    20    21   ar
    36    20    42    1
    37    21    22   ar
    38    21    24    1
    39    22    23   ar
    40    22    43    1
    41    23    44    1
    42    24    45    1
    43    26    46    1
    44    27    47    1
    45    28    48    1
    46    29    49    1
    47    30    50    1
    48     1    31    1
    49     1    27    1
    50     2    32    1
    51     2    28    1
    52     4    34    1
    53     4    30    1
