@<TRIPOS>MOLECULE
*****
 50 53 0 0 0
SMALL
GASTEIGER

@<TRIPOS>ATOM
     1 C         2.066066   0.03288   0.707879 C.3        1 UNL1     0.1889
     2 C         0.661667   -0.622137   0.61539 C.3        1 UNL1     0.1342
     3 C         -0.014031   -0.884438   1.970047 C.3        1 UNL1     0.1174
     4 C         0.983334   -1.266031   3.066755 C.3        1 UNL1     0.1456
     5 C         2.212704   -0.339628   3.094876 C.3        1 UNL1     0.2326
     6 O         2.857556   -0.348973   1.823284 O.3        1 UNL1     -0.3076
     7 O         1.920296   0.986578   3.571316 O.3        1 UNL1     -0.4605
     8 C         0.582296   1.33557   3.60991 C.ar        1 UNL1     0.1310
     9 C         -0.487142   0.478515   3.328736 C.ar        1 UNL1     0.0226
     10 C         -1.812059   0.922949   3.412244 C.ar        1 UNL1     0.1343
     11 C         -2.100718   2.229947   3.802466 C.ar        1 UNL1     0.1007
     12 C         -1.040148   3.106683   4.046002 C.ar        1 UNL1     0.1389
     13 C         0.292021   2.660303   3.959399 C.ar        1 UNL1     0.0229
     14 C         -3.483252   2.728172   3.988278 C.2        1 UNL1     0.1740
     15 C         -3.605612   4.082075   4.623512 C.3        1 UNL1     0.0520
     16 C         -2.518092   4.981979   4.053047 C.3        1 UNL1     0.1322
     17 O         -1.207371   4.441936   4.331316 O.3        1 UNL1     -0.4828
     18 C         -2.745845   5.372722   2.590798 C.ar        1 UNL1     -0.0067
     19 C         -3.93164   4.969795   1.942913 C.ar        1 UNL1     -0.0516
     20 C         -4.150094   5.269597   0.592965 C.ar        1 UNL1     -0.0198
     21 C         -3.189373   5.963799   -0.120426 C.ar        1 UNL1     0.1169
     22 C         -2.026335   6.403119   0.498589 C.ar        1 UNL1     -0.0198
     23 C         -1.815858   6.119482   1.853323 C.ar        1 UNL1     -0.0516
     24 O         -3.420217   6.204634   -1.442965 O.3        1 UNL1     -0.5068
     25 O         -4.482334   2.064699   3.723466 O.2        1 UNL1     -0.2917
     26 O         -2.809224   0.037395   3.124074 O.3        1 UNL1     -0.5058
     27 O         2.045315   1.441245   0.537988 O.3        1 UNL1     -0.3648
     28 O         0.793485   -1.891733   -0.050535 O.3        1 UNL1     -0.3841
     29 O         -0.850641   0.213321   2.340374 O.3        1 UNL1     -0.3863
     30 O         1.429269   -2.622512   2.850443 O.3        1 UNL1     -0.3829
     31 H         2.639434   -0.333855   -0.150511 H        1 UNL1     0.0937
     32 H         -0.0   0.0   0.0 H        1 UNL1     0.0671
     33 H         -0.692828   -1.73978   1.846175 H        1 UNL1     0.0649
     34 H         0.490513   -1.242774   4.045012 H        1 UNL1     0.0683
     35 H         2.895217   -0.827211   3.802206 H        1 UNL1     0.1085
     36 H         -0.330695   -0.564047   3.074357 H        1 UNL1     0.0691
     37 H         1.099758   3.362896   4.152834 H        1 UNL1     0.0691
     38 H         -3.4847   3.952927   5.704358 H        1 UNL1     0.0385
     39 H         -4.610067   4.476864   4.436454 H        1 UNL1     0.0385
     40 H         -2.551148   5.925486   4.614492 H        1 UNL1     0.0789
     41 H         -4.69708   4.415823   2.478512 H        1 UNL1     0.0623
     42 H         -5.063255   4.943062   0.101514 H        1 UNL1     0.0654
     43 H         -1.274159   6.960521   -0.046796 H        1 UNL1     0.0654
     44 H         -0.900765   6.487196   2.307455 H        1 UNL1     0.0623
     45 H         -4.379967   6.243777   -1.584614 H        1 UNL1     0.2921
     46 H         -3.669615   0.472847   3.231406 H        1 UNL1     0.2922
     47 H         1.15003   1.739664   0.325219 H        1 UNL1     0.2126
     48 H         1.246112   -2.489902   0.574809 H        1 UNL1     0.2101
     49 H         -0.523268   1.030326   1.931565 H        1 UNL1     0.2100
     50 H         0.672045   -3.219845   3.022252 H        1 UNL1     0.2102
@<TRIPOS>BOND
     1     1     2    1
     2     1     6    1
     3     2     3    1
     4     3     4    1
     5     3    29    1
     6     3    33    1
     7     4     5    1
     8     5     6    1
     9     5     7    1
    10     5    35    1
    11     7     8    1
    12     8     9   ar
    13     8    13   ar
    14     9    10   ar
    15     9    36    1
    16    10    11   ar
    17    10    26    1
    18    11    12   ar
    19    11    14    1
    20    12    13   ar
    21    12    17    1
    22    13    37    1
    23    14    15    1
    24    14    25    2
    25    15    16    1
    26    15    38    1
    27    15    39    1
    28    16    17    1
    29    16    18    1
    30    16    40    1
    31    18    19   ar
    32    18    23   ar
    33    19    20   ar
    34    19    41    1
    35    20    21   ar
    36    20    42    1
    37    21    22   ar
    38    21    24    1
    39    22    23   ar
    40    22    43    1
    41    23    44    1
    42    24    45    1
    43    26    46    1
    44    27    47    1
    45    28    48    1
    46    29    49    1
    47    30    50    1
    48     1    31    1
    49     1    27    1
    50     2    32    1
    51     2    28    1
    52     4    34    1
    53     4    30    1
