@<TRIPOS>MOLECULE
*****
 50 53 0 0 0
SMALL
GASTEIGER

@<TRIPOS>ATOM
     1 C         -0.317364   -1.321011   1.710267 C.3        1 UNL1     0.1889
     2 C         -0.454732   -0.977623   0.202569 C.3        1 UNL1     0.1342
     3 C         -1.897141   -0.978653   -0.326504 C.3        1 UNL1     0.1174
     4 C         -2.773762   -2.040594   0.342028 C.3        1 UNL1     0.1456
     5 C         -2.617576   -2.056103   1.873605 C.3        1 UNL1     0.2326
     6 O         -1.250122   -2.262199   2.220681 O.3        1 UNL1     -0.3076
     7 O         -3.199022   -0.909597   2.520726 O.3        1 UNL1     -0.4605
     8 C         -3.70332   -1.121509   3.791279 C.ar        1 UNL1     0.1310
     9 C         -4.510537   -2.198348   4.173536 C.ar        1 UNL1     0.0226
     10 C         -4.958493   -2.334488   5.492893 C.ar        1 UNL1     0.1343
     11 C         -4.590071   -1.408947   6.46833 C.ar        1 UNL1     0.1007
     12 C         -3.818223   -0.30725   6.089784 C.ar        1 UNL1     0.1389
     13 C         -3.370123   -0.169171   4.762542 C.ar        1 UNL1     0.0229
     14 C         -4.965366   -1.549382   7.894369 C.2        1 UNL1     0.1740
     15 C         -4.300656   -0.590724   8.83813 C.3        1 UNL1     0.0520
     16 C         -4.243549   0.777922   8.173674 C.3        1 UNL1     0.1322
     17 O         -3.488255   0.719624   6.943551 O.3        1 UNL1     -0.4828
     18 C         -5.608286   1.459486   8.048423 C.ar        1 UNL1     -0.0067
     19 C         -5.995268   2.012332   6.810352 C.ar        1 UNL1     -0.0516
     20 C         -7.215985   2.684011   6.67375 C.ar        1 UNL1     -0.0198
     21 C         -8.053359   2.815682   7.767045 C.ar        1 UNL1     0.1169
     22 C         -7.715134   2.253004   8.990906 C.ar        1 UNL1     -0.0198
     23 C         -6.502854   1.565285   9.123109 C.ar        1 UNL1     -0.0516
     24 O         -9.21674   3.50912   7.605521 O.3        1 UNL1     -0.5068
     25 O         -5.706324   -2.434216   8.314527 O.2        1 UNL1     -0.2917
     26 O         -5.743926   -3.40693   5.800378 O.3        1 UNL1     -0.5058
     27 O         -0.217979   -0.177284   2.543814 O.3        1 UNL1     -0.3648
     28 O         0.280747   -1.955021   -0.556688 O.3        1 UNL1     -0.3841
     29 O         -2.463956   0.331273   -0.25617 O.3        1 UNL1     -0.3863
     30 O         -2.418206   -3.341771   -0.173926 O.3        1 UNL1     -0.3829
     31 H         0.647366   -1.826164   1.829417 H        1 UNL1     0.0937
     32 H         0.0   0.0   0.0 H        1 UNL1     0.0671
     33 H         -1.861453   -1.224021   -1.39713 H        1 UNL1     0.0649
     34 H         -3.825893   -1.871391   0.087485 H        1 UNL1     0.0683
     35 H         -3.164844   -2.954238   2.186224 H        1 UNL1     0.1085
     36 H         -4.785313   -2.981138   3.475067 H        1 UNL1     0.0691
     37 H         -2.771325   0.69821   4.493126 H        1 UNL1     0.0691
     38 H         -3.294817   -0.97221   9.04376 H        1 UNL1     0.0385
     39 H         -4.858107   -0.570404   9.780793 H        1 UNL1     0.0385
     40 H         -3.651454   1.431301   8.828685 H        1 UNL1     0.0789
     41 H         -5.351527   1.930379   5.939415 H        1 UNL1     0.0623
     42 H         -7.497733   3.116306   5.716801 H        1 UNL1     0.0654
     43 H         -8.370331   2.337181   9.849708 H        1 UNL1     0.0654
     44 H         -6.275478   1.129169   10.091069 H        1 UNL1     0.0623
     45 H         -8.998284   4.416606   7.338198 H        1 UNL1     0.2921
     46 H         -5.333482   -3.912994   6.519299 H        1 UNL1     0.2922
     47 H         0.520233   0.380186   2.260744 H        1 UNL1     0.2126
     48 H         1.213848   -1.88127   -0.278091 H        1 UNL1     0.2101
     49 H         -2.031145   0.913196   -0.901022 H        1 UNL1     0.2100
     50 H         -2.654074   -3.36394   -1.124499 H        1 UNL1     0.2102
@<TRIPOS>BOND
     1     1     2    1
     2     1     6    1
     3     2     3    1
     4     3     4    1
     5     3    29    1
     6     3    33    1
     7     4     5    1
     8     5     6    1
     9     5     7    1
    10     5    35    1
    11     7     8    1
    12     8     9   ar
    13     8    13   ar
    14     9    10   ar
    15     9    36    1
    16    10    11   ar
    17    10    26    1
    18    11    12   ar
    19    11    14    1
    20    12    13   ar
    21    12    17    1
    22    13    37    1
    23    14    15    1
    24    14    25    2
    25    15    16    1
    26    15    38    1
    27    15    39    1
    28    16    17    1
    29    16    18    1
    30    16    40    1
    31    18    19   ar
    32    18    23   ar
    33    19    20   ar
    34    19    41    1
    35    20    21   ar
    36    20    42    1
    37    21    22   ar
    38    21    24    1
    39    22    23   ar
    40    22    43    1
    41    23    44    1
    42    24    45    1
    43    26    46    1
    44    27    47    1
    45    28    48    1
    46    29    49    1
    47    30    50    1
    48     1    31    1
    49     1    27    1
    50     2    32    1
    51     2    28    1
    52     4    34    1
    53     4    30    1
