@<TRIPOS>MOLECULE
*****
 50 53 0 0 0
SMALL
GASTEIGER

@<TRIPOS>ATOM
     1 C         -1.447447   -1.318591   0.967998 C.3        1 UNL1     0.1889
     2 C         -0.875902   -0.597266   -0.282189 C.3        1 UNL1     0.1342
     3 C         -1.880164   0.302827   -1.01823 C.3        1 UNL1     0.1174
     4 C         -3.306675   -0.251525   -0.988635 C.3        1 UNL1     0.1456
     5 C         -3.72743   -0.723619   0.415095 C.3        1 UNL1     0.2326
     6 O         -2.811344   -1.706459   0.892253 O.3        1 UNL1     -0.3076
     7 O         -3.934569   0.355459   1.344613 O.3        1 UNL1     -0.4605
     8 C         -4.894738   0.141863   2.317228 C.ar        1 UNL1     0.1310
     9 C         -6.169035   -0.391015   2.094723 C.ar        1 UNL1     0.0226
     10 C         -7.066778   -0.585456   3.151204 C.ar        1 UNL1     0.1343
     11 C         -6.702906   -0.273584   4.460469 C.ar        1 UNL1     0.1007
     12 C         -5.448235   0.297396   4.689736 C.ar        1 UNL1     0.1389
     13 C         -4.546725   0.495263   3.626928 C.ar        1 UNL1     0.0229
     14 C         -7.580384   -0.536543   5.624531 C.2        1 UNL1     0.1740
     15 C         -6.946088   -0.348558   6.971334 C.3        1 UNL1     0.0520
     16 C         -6.063153   0.890666   6.919311 C.3        1 UNL1     0.1322
     17 O         -5.028522   0.741635   5.922116 O.3        1 UNL1     -0.4828
     18 C         -6.846881   2.202293   6.829154 C.ar        1 UNL1     -0.0067
     19 C         -6.483584   3.160985   5.861095 C.ar        1 UNL1     -0.0516
     20 C         -7.148698   4.390393   5.782727 C.ar        1 UNL1     -0.0198
     21 C         -8.171584   4.675445   6.66945 C.ar        1 UNL1     0.1169
     22 C         -8.57438   3.738381   7.612055 C.ar        1 UNL1     -0.0198
     23 C         -7.921688   2.501604   7.678624 C.ar        1 UNL1     -0.0516
     24 O         -8.770964   5.897913   6.5875 O.3        1 UNL1     -0.5068
     25 O         -8.729242   -0.95891   5.523453 O.2        1 UNL1     -0.2917
     26 O         -8.294628   -1.108072   2.866878 O.3        1 UNL1     -0.5058
     27 O         -1.159556   -0.651462   2.186541 O.3        1 UNL1     -0.3648
     28 O         -0.427663   -1.594389   -1.218956 O.3        1 UNL1     -0.3841
     29 O         -1.799113   1.647866   -0.54238 O.3        1 UNL1     -0.3863
     30 O         -3.400405   -1.367145   -1.900938 O.3        1 UNL1     -0.3829
     31 H         -0.914272   -2.272041   1.050077 H        1 UNL1     0.0937
     32 H         0.0   0.0   0.0 H        1 UNL1     0.0671
     33 H         -1.578684   0.348206   -2.074058 H        1 UNL1     0.0649
     34 H         -4.011291   0.510209   -1.340316 H        1 UNL1     0.0683
     35 H         -4.683937   -1.234161   0.246811 H        1 UNL1     0.1085
     36 H         -6.491272   -0.705537   1.108133 H        1 UNL1     0.0691
     37 H         -3.5764   0.942531   3.831658 H        1 UNL1     0.0691
     38 H         -6.355697   -1.245366   7.187435 H        1 UNL1     0.0385
     39 H         -7.731995   -0.265458   7.729768 H        1 UNL1     0.0385
     40 H         -5.520195   0.941535   7.872794 H        1 UNL1     0.0789
     41 H         -5.677951   2.964923   5.15955 H        1 UNL1     0.0623
     42 H         -6.851377   5.126139   5.039565 H        1 UNL1     0.0654
     43 H         -9.384178   3.945355   8.301474 H        1 UNL1     0.0654
     44 H         -8.269491   1.789136   8.420424 H        1 UNL1     0.0623
     45 H         -8.09828   6.580399   6.743785 H        1 UNL1     0.2921
     46 H         -8.433139   -1.912566   3.391297 H        1 UNL1     0.2922
     47 H         -0.205139   -0.525581   2.281951 H        1 UNL1     0.2126
     48 H         0.277091   -2.10147   -0.771828 H        1 UNL1     0.2101
     49 H         -0.957998   2.045477   -0.818469 H        1 UNL1     0.2100
     50 H         -3.267951   -1.025589   -2.809512 H        1 UNL1     0.2102
@<TRIPOS>BOND
     1     1     2    1
     2     1     6    1
     3     2     3    1
     4     3     4    1
     5     3    29    1
     6     3    33    1
     7     4     5    1
     8     5     6    1
     9     5     7    1
    10     5    35    1
    11     7     8    1
    12     8     9   ar
    13     8    13   ar
    14     9    10   ar
    15     9    36    1
    16    10    11   ar
    17    10    26    1
    18    11    12   ar
    19    11    14    1
    20    12    13   ar
    21    12    17    1
    22    13    37    1
    23    14    15    1
    24    14    25    2
    25    15    16    1
    26    15    38    1
    27    15    39    1
    28    16    17    1
    29    16    18    1
    30    16    40    1
    31    18    19   ar
    32    18    23   ar
    33    19    20   ar
    34    19    41    1
    35    20    21   ar
    36    20    42    1
    37    21    22   ar
    38    21    24    1
    39    22    23   ar
    40    22    43    1
    41    23    44    1
    42    24    45    1
    43    26    46    1
    44    27    47    1
    45    28    48    1
    46    29    49    1
    47    30    50    1
    48     1    31    1
    49     1    27    1
    50     2    32    1
    51     2    28    1
    52     4    34    1
    53     4    30    1
