@<TRIPOS>MOLECULE
*****
 50 53 0 0 0
SMALL
GASTEIGER

@<TRIPOS>ATOM
     1 C         -0.356827   -1.392329   1.644658 C.3        1 UNL1     0.1889
     2 C         -0.480752   -0.973888   0.154863 C.3        1 UNL1     0.1342
     3 C         -1.921141   -0.911759   -0.376064 C.3        1 UNL1     0.1174
     4 C         -2.827205   -1.980989   0.239495 C.3        1 UNL1     0.1456
     5 C         -2.675957   -2.073672   1.76884 C.3        1 UNL1     0.2326
     6 O         -1.315386   -2.331964   2.107956 O.3        1 UNL1     -0.3076
     7 O         -3.229088   -0.944471   2.469034 O.3        1 UNL1     -0.4605
     8 C         -3.753131   -1.205658   3.722306 C.ar        1 UNL1     0.1310
     9 C         -4.588412   -2.281085   4.043337 C.ar        1 UNL1     0.0226
     10 C         -5.055046   -2.470222   5.349623 C.ar        1 UNL1     0.1343
     11 C         -4.678033   -1.601113   6.372536 C.ar        1 UNL1     0.1007
     12 C         -3.877606   -0.50024   6.056023 C.ar        1 UNL1     0.1389
     13 C         -3.410692   -0.308793   4.741957 C.ar        1 UNL1     0.0229
     14 C         -5.073402   -1.801298   7.785959 C.2        1 UNL1     0.1740
     15 C         -4.399085   -0.904293   8.782066 C.3        1 UNL1     0.0520
     16 C         -4.303863   0.49302   8.185069 C.3        1 UNL1     0.1322
     17 O         -3.535344   0.476766   6.961883 O.3        1 UNL1     -0.4828
     18 C         -5.651646   1.210468   8.077956 C.ar        1 UNL1     -0.0067
     19 C         -5.684318   2.572044   7.71291 C.ar        1 UNL1     -0.0516
     20 C         -6.896112   3.270456   7.651765 C.ar        1 UNL1     -0.0198
     21 C         -8.078672   2.621992   7.95978 C.ar        1 UNL1     0.1169
     22 C         -8.082245   1.273035   8.290143 C.ar        1 UNL1     -0.0198
     23 C         -6.872509   0.569671   8.333426 C.ar        1 UNL1     -0.0516
     24 O         -9.235193   3.3443   7.926124 O.3        1 UNL1     -0.5068
     25 O         -5.838668   -2.688308   8.154831 O.2        1 UNL1     -0.2917
     26 O         -5.867556   -3.538164   5.596425 O.3        1 UNL1     -0.5058
     27 O         -0.229981   -0.292693   2.532069 O.3        1 UNL1     -0.3648
     28 O         0.231113   -1.932928   -0.649 O.3        1 UNL1     -0.3841
     29 O         -2.453683   0.407761   -0.244164 O.3        1 UNL1     -0.3863
     30 O         -2.504317   -3.264955   -0.337451 O.3        1 UNL1     -0.3829
     31 H         0.593999   -1.927772   1.741145 H        1 UNL1     0.0937
     32 H         0.0   0.0   0.0 H        1 UNL1     0.0671
     33 H         -1.888756   -1.106606   -1.457131 H        1 UNL1     0.0649
     34 H         -3.873798   -1.772239   -0.00843 H        1 UNL1     0.0683
     35 H         -3.247455   -2.971009   2.037271 H        1 UNL1     0.1085
     36 H         -4.871982   -3.02305   3.304963 H        1 UNL1     0.0691
     37 H         -2.789734   0.556766   4.521249 H        1 UNL1     0.0691
     38 H         -3.404437   -1.317835   8.980019 H        1 UNL1     0.0385
     39 H         -4.967215   -0.91664   9.718471 H        1 UNL1     0.0385
     40 H         -3.705406   1.100672   8.87726 H        1 UNL1     0.0789
     41 H         -4.768848   3.106022   7.475357 H        1 UNL1     0.0623
     42 H         -6.906979   4.323225   7.380526 H        1 UNL1     0.0654
     43 H         -9.004142   0.751642   8.518542 H        1 UNL1     0.0654
     44 H         -6.913582   -0.485735   8.584977 H        1 UNL1     0.0623
     45 H         -9.194751   4.020599   8.621611 H        1 UNL1     0.2921
     46 H         -5.489491   -4.07384   6.311638 H        1 UNL1     0.2922
     47 H         0.510623   0.269441   2.264915 H        1 UNL1     0.2126
     48 H         1.182615   -1.77371   -0.497261 H        1 UNL1     0.2101
     49 H         -2.143775   0.963483   -0.976916 H        1 UNL1     0.2100
     50 H         -2.764055   -3.245051   -1.28183 H        1 UNL1     0.2102
@<TRIPOS>BOND
     1     1     2    1
     2     1     6    1
     3     2     3    1
     4     3     4    1
     5     3    29    1
     6     3    33    1
     7     4     5    1
     8     5     6    1
     9     5     7    1
    10     5    35    1
    11     7     8    1
    12     8     9   ar
    13     8    13   ar
    14     9    10   ar
    15     9    36    1
    16    10    11   ar
    17    10    26    1
    18    11    12   ar
    19    11    14    1
    20    12    13   ar
    21    12    17    1
    22    13    37    1
    23    14    15    1
    24    14    25    2
    25    15    16    1
    26    15    38    1
    27    15    39    1
    28    16    17    1
    29    16    18    1
    30    16    40    1
    31    18    19   ar
    32    18    23   ar
    33    19    20   ar
    34    19    41    1
    35    20    21   ar
    36    20    42    1
    37    21    22   ar
    38    21    24    1
    39    22    23   ar
    40    22    43    1
    41    23    44    1
    42    24    45    1
    43    26    46    1
    44    27    47    1
    45    28    48    1
    46    29    49    1
    47    30    50    1
    48     1    31    1
    49     1    27    1
    50     2    32    1
    51     2    28    1
    52     4    34    1
    53     4    30    1
