@<TRIPOS>MOLECULE
*****
 50 53 0 0 0
SMALL
GASTEIGER

@<TRIPOS>ATOM
     1 C         -0.335216   -1.330192   1.699713 C.3        1 UNL1     0.1889
     2 C         -0.464261   -0.974869   0.194046 C.3        1 UNL1     0.1342
     3 C         -1.904785   -0.959047   -0.339907 C.3        1 UNL1     0.1174
     4 C         -2.793288   -2.017708   0.318056 C.3        1 UNL1     0.1456
     5 C         -2.64254   -2.045513   1.850004 C.3        1 UNL1     0.2326
     6 O         -1.278215   -2.266476   2.200234 O.3        1 UNL1     -0.3076
     7 O         -3.215814   -0.898402   2.503314 O.3        1 UNL1     -0.4605
     8 C         -3.726821   -1.114853   3.770417 C.ar        1 UNL1     0.1310
     9 C         -4.54537   -2.186921   4.141828 C.ar        1 UNL1     0.0226
     10 C         -4.999522   -2.328481   5.458494 C.ar        1 UNL1     0.1343
     11 C         -4.626248   -1.41349   6.442008 C.ar        1 UNL1     0.1007
     12 C         -3.842851   -0.316264   6.074356 C.ar        1 UNL1     0.1389
     13 C         -3.388507   -0.17271   4.74982 C.ar        1 UNL1     0.0229
     14 C         -5.008184   -1.56079   7.865588 C.2        1 UNL1     0.1740
     15 C         -4.338212   -0.615197   8.818763 C.3        1 UNL1     0.0520
     16 C         -4.265983   0.757648   8.164517 C.3        1 UNL1     0.1322
     17 O         -3.506637   0.701291   6.9368 O.3        1 UNL1     -0.4828
     18 C         -5.623893   1.452701   8.039199 C.ar        1 UNL1     -0.0067
     19 C         -5.999915   2.020522   6.804533 C.ar        1 UNL1     -0.0516
     20 C         -7.213847   2.70449   6.66845 C.ar        1 UNL1     -0.0198
     21 C         -8.055242   2.833582   7.758963 C.ar        1 UNL1     0.1169
     22 C         -7.727994   2.256504   8.979097 C.ar        1 UNL1     -0.0198
     23 C         -6.522622   1.556615   9.110591 C.ar        1 UNL1     -0.0516
     24 O         -9.211525   3.539019   7.598434 O.3        1 UNL1     -0.5068
     25 O         -5.758849   -2.441756   8.276544 O.2        1 UNL1     -0.2917
     26 O         -5.795967   -3.395813   5.75525 O.3        1 UNL1     -0.5058
     27 O         -0.228361   -0.193365   2.541731 O.3        1 UNL1     -0.3648
     28 O         0.264957   -1.953485   -0.569667 O.3        1 UNL1     -0.3841
     29 O         -2.459956   0.355439   -0.262151 O.3        1 UNL1     -0.3863
     30 O         -2.447747   -3.318361   -0.205961 O.3        1 UNL1     -0.3829
     31 H         0.624482   -1.844916   1.818525 H        1 UNL1     0.0937
     32 H         0.0   0.0   0.0 H        1 UNL1     0.0671
     33 H         -1.867621   -1.197116   -1.41213 H        1 UNL1     0.0649
     34 H         -3.842958   -1.837156   0.061161 H        1 UNL1     0.0683
     35 H         -3.198994   -2.940841   2.15435 H        1 UNL1     0.1085
     36 H         -4.824727   -2.962047   3.436661 H        1 UNL1     0.0691
     37 H         -2.780724   0.691025   4.48895 H        1 UNL1     0.0691
     38 H         -3.336716   -1.007456   9.02532 H        1 UNL1     0.0385
     39 H         -4.898994   -0.59656   9.759483 H        1 UNL1     0.0385
     40 H         -3.670353   1.400751   8.826457 H        1 UNL1     0.0789
     41 H         -5.352763   1.940833   5.935916 H        1 UNL1     0.0623
     42 H         -7.48708   3.148202   5.714262 H        1 UNL1     0.0654
     43 H         -8.386523   2.338633   9.835546 H        1 UNL1     0.0654
     44 H         -6.303846   1.109473   10.075498 H        1 UNL1     0.0623
     45 H         -8.983582   4.44712   7.341314 H        1 UNL1     0.2921
     46 H         -5.393518   -3.910176   6.472799 H        1 UNL1     0.2922
     47 H         0.515736   0.359467   2.265043 H        1 UNL1     0.2126
     48 H         1.197841   -1.8897   -0.287901 H        1 UNL1     0.2101
     49 H         -2.019848   0.93791   -0.901545 H        1 UNL1     0.2100
     50 H         -2.680521   -3.331635   -1.157461 H        1 UNL1     0.2102
@<TRIPOS>BOND
     1     1     2    1
     2     1     6    1
     3     2     3    1
     4     3     4    1
     5     3    29    1
     6     3    33    1
     7     4     5    1
     8     5     6    1
     9     5     7    1
    10     5    35    1
    11     7     8    1
    12     8     9   ar
    13     8    13   ar
    14     9    10   ar
    15     9    36    1
    16    10    11   ar
    17    10    26    1
    18    11    12   ar
    19    11    14    1
    20    12    13   ar
    21    12    17    1
    22    13    37    1
    23    14    15    1
    24    14    25    2
    25    15    16    1
    26    15    38    1
    27    15    39    1
    28    16    17    1
    29    16    18    1
    30    16    40    1
    31    18    19   ar
    32    18    23   ar
    33    19    20   ar
    34    19    41    1
    35    20    21   ar
    36    20    42    1
    37    21    22   ar
    38    21    24    1
    39    22    23   ar
    40    22    43    1
    41    23    44    1
    42    24    45    1
    43    26    46    1
    44    27    47    1
    45    28    48    1
    46    29    49    1
    47    30    50    1
    48     1    31    1
    49     1    27    1
    50     2    32    1
    51     2    28    1
    52     4    34    1
    53     4    30    1
