@<TRIPOS>MOLECULE
*****
 50 53 0 0 0
SMALL
GASTEIGER

@<TRIPOS>ATOM
     1 C         -0.33217   -1.328065   1.701972 C.3        1 UNL1     0.1889
     2 C         -0.462631   -0.975287   0.195829 C.3        1 UNL1     0.1342
     3 C         -1.903484   -0.962538   -0.337318 C.3        1 UNL1     0.1174
     4 C         -2.78996   -2.021556   0.322802 C.3        1 UNL1     0.1456
     5 C         -2.63829   -2.046743   1.854704 C.3        1 UNL1     0.2326
     6 O         -1.273422   -2.265036   2.204491 O.3        1 UNL1     -0.3076
     7 O         -3.212975   -0.89951   2.50656 O.3        1 UNL1     -0.4605
     8 C         -3.722917   -1.114783   3.774292 C.ar        1 UNL1     0.1310
     9 C         -4.539582   -2.187545   4.147842 C.ar        1 UNL1     0.0226
     10 C         -4.992758   -2.327763   5.464987 C.ar        1 UNL1     0.1343
     11 C         -4.620345   -1.410663   6.446862 C.ar        1 UNL1     0.1007
     12 C         -3.838869   -0.312792   6.077053 C.ar        1 UNL1     0.1389
     13 C         -3.385509   -0.170593   4.752034 C.ar        1 UNL1     0.0229
     14 C         -5.001235   -1.556342   7.870889 C.2        1 UNL1     0.1740
     15 C         -4.33219   -0.608225   8.822206 C.3        1 UNL1     0.0520
     16 C         -4.262473   0.763711   8.165785 C.3        1 UNL1     0.1322
     17 O         -3.503745   0.706625   6.93772 O.3        1 UNL1     -0.4828
     18 C         -5.621536   1.456454   8.040168 C.ar        1 UNL1     -0.0067
     19 C         -6.00033   2.019314   6.804079 C.ar        1 UNL1     -0.0516
     20 C         -7.215418   2.70113   6.667504 C.ar        1 UNL1     -0.0198
     21 C         -8.055225   2.832997   7.758907 C.ar        1 UNL1     0.1169
     22 C         -7.725216   2.260761   8.980578 C.ar        1 UNL1     -0.0198
     23 C         -6.518675   1.562996   9.112634 C.ar        1 UNL1     -0.0516
     24 O         -9.212733   3.536272   7.597717 O.3        1 UNL1     -0.5068
     25 O         -5.750291   -2.437834   8.283647 O.2        1 UNL1     -0.2917
     26 O         -5.787369   -3.39587   5.763861 O.3        1 UNL1     -0.5058
     27 O         -0.226601   -0.189765   2.542159 O.3        1 UNL1     -0.3648
     28 O         0.267672   -1.953954   -0.566781 O.3        1 UNL1     -0.3841
     29 O         -2.460657   0.351201   -0.261286 O.3        1 UNL1     -0.3863
     30 O         -2.442695   -3.322483   -0.19939 O.3        1 UNL1     -0.3829
     31 H         0.628397   -1.84111   1.821032 H        1 UNL1     0.0937
     32 H         0.0   0.0   0.0 H        1 UNL1     0.0671
     33 H         -1.866564   -1.202217   -1.40919 H        1 UNL1     0.0649
     34 H         -3.840057   -1.843037   0.066232 H        1 UNL1     0.0683
     35 H         -3.193174   -2.94246   2.160763 H        1 UNL1     0.1085
     36 H         -4.818137   -2.964201   3.444042 H        1 UNL1     0.0691
     37 H         -2.779221   0.69368   4.489471 H        1 UNL1     0.0691
     38 H         -3.329966   -0.998603   9.028796 H        1 UNL1     0.0385
     39 H         -4.89246   -0.588997   9.763219 H        1 UNL1     0.0385
     40 H         -3.667466   1.408769   8.82638 H        1 UNL1     0.0789
     41 H         -5.354474   1.937384   5.934707 H        1 UNL1     0.0623
     42 H         -7.4908   3.141032   5.71217 H        1 UNL1     0.0654
     43 H         -8.382473   2.345072   9.837791 H        1 UNL1     0.0654
     44 H         -6.297728   1.119628   10.078788 H        1 UNL1     0.0623
     45 H         -8.986451   4.443752   7.336963 H        1 UNL1     0.2921
     46 H         -5.383623   -3.908586   6.48186 H        1 UNL1     0.2922
     47 H         0.516475   0.363793   2.264183 H        1 UNL1     0.2126
     48 H         1.200616   -1.888279   -0.285652 H        1 UNL1     0.2101
     49 H         -2.021704   0.933405   -0.901718 H        1 UNL1     0.2100
     50 H         -2.675993   -3.337599   -1.150734 H        1 UNL1     0.2102
@<TRIPOS>BOND
     1     1     2    1
     2     1     6    1
     3     2     3    1
     4     3     4    1
     5     3    29    1
     6     3    33    1
     7     4     5    1
     8     5     6    1
     9     5     7    1
    10     5    35    1
    11     7     8    1
    12     8     9   ar
    13     8    13   ar
    14     9    10   ar
    15     9    36    1
    16    10    11   ar
    17    10    26    1
    18    11    12   ar
    19    11    14    1
    20    12    13   ar
    21    12    17    1
    22    13    37    1
    23    14    15    1
    24    14    25    2
    25    15    16    1
    26    15    38    1
    27    15    39    1
    28    16    17    1
    29    16    18    1
    30    16    40    1
    31    18    19   ar
    32    18    23   ar
    33    19    20   ar
    34    19    41    1
    35    20    21   ar
    36    20    42    1
    37    21    22   ar
    38    21    24    1
    39    22    23   ar
    40    22    43    1
    41    23    44    1
    42    24    45    1
    43    26    46    1
    44    27    47    1
    45    28    48    1
    46    29    49    1
    47    30    50    1
    48     1    31    1
    49     1    27    1
    50     2    32    1
    51     2    28    1
    52     4    34    1
    53     4    30    1
