@<TRIPOS>MOLECULE
*****
 50 53 0 0 0
SMALL
GASTEIGER

@<TRIPOS>ATOM
     1 C         -0.507283   -1.1902   1.759799 C.3        1 UNL1     0.1889
     2 C         -0.505718   -0.946818   0.226599 C.3        1 UNL1     0.1342
     3 C         -1.898044   -0.939205   -0.42289 C.3        1 UNL1     0.1174
     4 C         -2.865853   -1.925043   0.236341 C.3        1 UNL1     0.1456
     5 C         -2.8386   -1.840426   1.773371 C.3        1 UNL1     0.2326
     6 O         -1.513366   -2.064716   2.249099 O.3        1 UNL1     -0.3076
     7 O         -3.429381   -0.634734   2.291643 O.3        1 UNL1     -0.4605
     8 C         -4.045738   -0.743401   3.525265 C.ar        1 UNL1     0.1310
     9 C         -4.921373   -1.765809   3.906374 C.ar        1 UNL1     0.0226
     10 C         -5.482908   -1.797344   5.188398 C.ar        1 UNL1     0.1343
     11 C         -5.163453   -0.819249   6.129206 C.ar        1 UNL1     0.1007
     12 C         -4.32243   0.229307   5.747116 C.ar        1 UNL1     0.1389
     13 C         -3.76002   0.262232   4.457139 C.ar        1 UNL1     0.0229
     14 C         -5.661719   -0.850044   7.523816 C.2        1 UNL1     0.1740
     15 C         -5.043344   0.149641   8.456442 C.3        1 UNL1     0.0520
     16 C         -4.880266   1.467195   7.711181 C.3        1 UNL1     0.1322
     17 O         -4.027339   1.301331   6.557026 O.3        1 UNL1     -0.4828
     18 C         -6.203597   2.180947   7.424693 C.ar        1 UNL1     -0.0067
     19 C         -6.463708   2.662151   6.125079 C.ar        1 UNL1     -0.0516
     20 C         -7.643034   3.360824   5.84046 C.ar        1 UNL1     -0.0198
     21 C         -8.564711   3.590667   6.846199 C.ar        1 UNL1     0.1169
     22 C         -8.352304   3.100226   8.128069 C.ar        1 UNL1     -0.0198
     23 C         -7.181593   2.385526   8.408597 C.ar        1 UNL1     -0.0516
     24 O         -9.684037   4.307608   6.540412 O.3        1 UNL1     -0.5068
     25 O         -6.467448   -1.680473   7.935731 O.2        1 UNL1     -0.2917
     26 O         -6.33043   -2.821162   5.496759 O.3        1 UNL1     -0.5058
     27 O         -0.435715   0.004304   2.521917 O.3        1 UNL1     -0.3648
     28 O         0.254031   -1.996359   -0.401057 O.3        1 UNL1     -0.3841
     29 O         -2.420144   0.389467   -0.487509 O.3        1 UNL1     -0.3863
     30 O         -2.516653   -3.26895   -0.16073 O.3        1 UNL1     -0.3829
     31 H         0.424899   -1.715782   1.99406 H        1 UNL1     0.0937
     32 H         0.0   0.0   0.0 H        1 UNL1     0.0671
     33 H         -1.782261   -1.258347   -1.468099 H        1 UNL1     0.0649
     34 H         -3.88615   -1.741015   -0.11796 H        1 UNL1     0.0683
     35 H         -3.44272   -2.69756   2.096231 H        1 UNL1     0.1085
     36 H         -5.165479   -2.585548   3.239619 H        1 UNL1     0.0691
     37 H         -3.109118   1.090009   4.184002 H        1 UNL1     0.0691
     38 H         -4.073039   -0.248162   8.772332 H        1 UNL1     0.0385
     39 H         -5.676603   0.251792   9.34432 H        1 UNL1     0.0385
     40 H         -4.32132   2.144994   8.370491 H        1 UNL1     0.0789
     41 H         -5.751871   2.502655   5.320405 H        1 UNL1     0.0623
     42 H         -7.826611   3.737193   4.837136 H        1 UNL1     0.0654
     43 H         -9.074438   3.26149   8.91954 H        1 UNL1     0.0654
     44 H         -7.05323   2.007764   9.418381 H        1 UNL1     0.0623
     45 H         -9.410895   5.190271   6.242055 H        1 UNL1     0.2921
     46 H         -6.001235   -3.288721   6.280616 H        1 UNL1     0.2922
     47 H         0.341947   0.519228   2.2651 H        1 UNL1     0.2126
     48 H         1.164293   -1.928758   -0.053804 H        1 UNL1     0.2101
     49 H         -1.914106   0.91201   -1.129902 H        1 UNL1     0.2100
     50 H         -2.673091   -3.348848   -1.124502 H        1 UNL1     0.2102
@<TRIPOS>BOND
     1     1     2    1
     2     1     6    1
     3     2     3    1
     4     3     4    1
     5     3    29    1
     6     3    33    1
     7     4     5    1
     8     5     6    1
     9     5     7    1
    10     5    35    1
    11     7     8    1
    12     8     9   ar
    13     8    13   ar
    14     9    10   ar
    15     9    36    1
    16    10    11   ar
    17    10    26    1
    18    11    12   ar
    19    11    14    1
    20    12    13   ar
    21    12    17    1
    22    13    37    1
    23    14    15    1
    24    14    25    2
    25    15    16    1
    26    15    38    1
    27    15    39    1
    28    16    17    1
    29    16    18    1
    30    16    40    1
    31    18    19   ar
    32    18    23   ar
    33    19    20   ar
    34    19    41    1
    35    20    21   ar
    36    20    42    1
    37    21    22   ar
    38    21    24    1
    39    22    23   ar
    40    22    43    1
    41    23    44    1
    42    24    45    1
    43    26    46    1
    44    27    47    1
    45    28    48    1
    46    29    49    1
    47    30    50    1
    48     1    31    1
    49     1    27    1
    50     2    32    1
    51     2    28    1
    52     4    34    1
    53     4    30    1
