@<TRIPOS>MOLECULE
*****
 50 53 0 0 0
SMALL
GASTEIGER

@<TRIPOS>ATOM
     1 C         0.69805   -1.440761   1.485846 C.3        1 UNL1     0.1889
     2 C         -0.427052   -0.774573   0.649019 C.3        1 UNL1     0.1342
     3 C         -1.565751   -0.161506   1.478462 C.3        1 UNL1     0.1174
     4 C         -1.870047   -0.958708   2.749285 C.3        1 UNL1     0.1456
     5 C         -0.596814   -1.336605   3.528025 C.3        1 UNL1     0.2326
     6 O         0.285832   -2.075956   2.687095 O.3        1 UNL1     -0.3076
     7 O         0.03827   -0.214501   4.167456 O.3        1 UNL1     -0.4605
     8 C         0.693578   -0.484775   5.355333 C.ar        1 UNL1     0.1310
     9 C         0.091943   -0.975163   6.519315 C.ar        1 UNL1     0.0226
     10 C         0.84616   -1.233979   7.669999 C.ar        1 UNL1     0.1343
     11 C         2.225503   -1.030994   7.677057 C.ar        1 UNL1     0.1007
     12 C         2.831322   -0.502783   6.533921 C.ar        1 UNL1     0.1389
     13 C         2.072331   -0.240133   5.377903 C.ar        1 UNL1     0.0229
     14 C         3.08297   -1.366799   8.837289 C.2        1 UNL1     0.1740
     15 C         4.561891   -1.29522   8.593942 C.3        1 UNL1     0.0520
     16 C         4.850048   -0.072256   7.734126 C.3        1 UNL1     0.1322
     17 O         4.162586   -0.162943   6.46675 O.3        1 UNL1     -0.4828
     18 C         4.654956   1.256713   8.467955 C.ar        1 UNL1     -0.0067
     19 C         4.3216   1.248875   9.838001 C.ar        1 UNL1     -0.0516
     20 C         4.08975   2.444911   10.527715 C.ar        1 UNL1     -0.0198
     21 C         4.180729   3.652229   9.858435 C.ar        1 UNL1     0.1169
     22 C         4.539903   3.694141   8.517512 C.ar        1 UNL1     -0.0198
     23 C         4.789865   2.499243   7.832098 C.ar        1 UNL1     -0.0516
     24 O         3.91102   4.794252   10.553734 O.3        1 UNL1     -0.5068
     25 O         2.640628   -1.758732   9.913954 O.2        1 UNL1     -0.2917
     26 O         0.198649   -1.710222   8.7725 O.3        1 UNL1     -0.5058
     27 O         1.819795   -0.598254   1.697166 O.3        1 UNL1     -0.3648
     28 O         -1.010885   -1.77366   -0.207527 O.3        1 UNL1     -0.3841
     29 O         -1.315657   1.221127   1.739064 O.3        1 UNL1     -0.3863
     30 O         -2.572228   -2.169193   2.392415 O.3        1 UNL1     -0.3829
     31 H         1.090574   -2.265886   0.881551 H        1 UNL1     0.0937
     32 H         0.0   0.0   0.0 H        1 UNL1     0.0671
     33 H         -2.47686   -0.182506   0.864329 H        1 UNL1     0.0649
     34 H         -2.535474   -0.382647   3.401788 H        1 UNL1     0.0683
     35 H         -0.954938   -2.028154   4.300932 H        1 UNL1     0.1085
     36 H         -0.966809   -1.206493   6.559973 H        1 UNL1     0.0691
     37 H         2.567607   0.171922   4.501315 H        1 UNL1     0.0691
     38 H         4.858234   -2.216831   8.081749 H        1 UNL1     0.0385
     39 H         5.082622   -1.256418   9.556808 H        1 UNL1     0.0385
     40 H         5.916027   -0.105279   7.471224 H        1 UNL1     0.0789
     41 H         4.235017   0.313814   10.383724 H        1 UNL1     0.0623
     42 H         3.821755   2.42509   11.581184 H        1 UNL1     0.0654
     43 H         4.628722   4.634924   7.987464 H        1 UNL1     0.0654
     44 H         5.078528   2.569865   6.787813 H        1 UNL1     0.0623
     45 H         2.988255   4.759925   10.853807 H        1 UNL1     0.2921
     46 H         0.764751   -2.353652   9.227405 H        1 UNL1     0.2922
     47 H         2.582055   -1.120987   1.982768 H        1 UNL1     0.2126
     48 H         -0.271561   -2.301936   -0.565377 H        1 UNL1     0.2101
     49 H         -1.338397   1.386127   2.695124 H        1 UNL1     0.2100
     50 H         -3.454836   -1.916207   2.050781 H        1 UNL1     0.2102
@<TRIPOS>BOND
     1     1     2    1
     2     1     6    1
     3     2     3    1
     4     3     4    1
     5     3    29    1
     6     3    33    1
     7     4     5    1
     8     5     6    1
     9     5     7    1
    10     5    35    1
    11     7     8    1
    12     8     9   ar
    13     8    13   ar
    14     9    10   ar
    15     9    36    1
    16    10    11   ar
    17    10    26    1
    18    11    12   ar
    19    11    14    1
    20    12    13   ar
    21    12    17    1
    22    13    37    1
    23    14    15    1
    24    14    25    2
    25    15    16    1
    26    15    38    1
    27    15    39    1
    28    16    17    1
    29    16    18    1
    30    16    40    1
    31    18    19   ar
    32    18    23   ar
    33    19    20   ar
    34    19    41    1
    35    20    21   ar
    36    20    42    1
    37    21    22   ar
    38    21    24    1
    39    22    23   ar
    40    22    43    1
    41    23    44    1
    42    24    45    1
    43    26    46    1
    44    27    47    1
    45    28    48    1
    46    29    49    1
    47    30    50    1
    48     1    31    1
    49     1    27    1
    50     2    32    1
    51     2    28    1
    52     4    34    1
    53     4    30    1
