@<TRIPOS>MOLECULE
*****
 50 53 0 0 0
SMALL
GASTEIGER

@<TRIPOS>ATOM
     1 C         -0.338657   -1.357819   1.677034 C.3        1 UNL1     0.1889
     2 C         -0.465229   -0.977602   0.177249 C.3        1 UNL1     0.1342
     3 C         -1.904951   -0.951928   -0.35848 C.3        1 UNL1     0.1174
     4 C         -2.795165   -2.020661   0.280617 C.3        1 UNL1     0.1456
     5 C         -2.6467   -2.073854   1.812117 C.3        1 UNL1     0.2326
     6 O         -1.283048   -2.301553   2.160651 O.3        1 UNL1     -0.3076
     7 O         -3.220136   -0.937266   2.48343 O.3        1 UNL1     -0.4605
     8 C         -3.743347   -1.176626   3.741399 C.ar        1 UNL1     0.1310
     9 C         -4.802512   -2.044992   4.026724 C.ar        1 UNL1     0.0226
     10 C         -5.250489   -2.233204   5.339658 C.ar        1 UNL1     0.1343
     11 C         -4.633931   -1.575041   6.402917 C.ar        1 UNL1     0.1007
     12 C         -3.602168   -0.674133   6.126124 C.ar        1 UNL1     0.1389
     13 C         -3.153656   -0.483057   4.80561 C.ar        1 UNL1     0.0229
     14 C         -5.011411   -1.800612   7.817406 C.2        1 UNL1     0.1740
     15 C         -4.100975   -1.184293   8.838584 C.3        1 UNL1     0.0520
     16 C         -3.691182   0.197269   8.347347 C.3        1 UNL1     0.1322
     17 O         -2.997502   0.107158   7.083323 O.3        1 UNL1     -0.4828
     18 C         -4.826593   1.2233   8.37612 C.ar        1 UNL1     -0.0067
     19 C         -4.539029   2.581535   8.129708 C.ar        1 UNL1     -0.0516
     20 C         -5.545717   3.55224   8.195063 C.ar        1 UNL1     -0.0198
     21 C         -6.839588   3.179345   8.512357 C.ar        1 UNL1     0.1169
     22 C         -7.160373   1.845285   8.72734 C.ar        1 UNL1     -0.0198
     23 C         -6.157481   0.871989   8.643911 C.ar        1 UNL1     -0.0516
     24 O         -7.785963   4.157289   8.604013 O.3        1 UNL1     -0.5068
     25 O         -5.954967   -2.507889   8.160842 O.2        1 UNL1     -0.2917
     26 O         -6.288623   -3.093131   5.550345 O.3        1 UNL1     -0.5058
     27 O         -0.23225   -0.23512   2.537856 O.3        1 UNL1     -0.3648
     28 O         0.264432   -1.944009   -0.601442 O.3        1 UNL1     -0.3841
     29 O         -2.459317   0.361497   -0.259853 O.3        1 UNL1     -0.3863
     30 O         -2.449761   -3.312738   -0.264287 O.3        1 UNL1     -0.3829
     31 H         0.620505   -1.875128   1.788741 H        1 UNL1     0.0937
     32 H         0.0   0.0   0.0 H        1 UNL1     0.0671
     33 H         -1.86637   -1.172296   -1.434431 H        1 UNL1     0.0649
     34 H         -3.844328   -1.835134   0.0252 H        1 UNL1     0.0683
     35 H         -3.204229   -2.973679   2.10083 H        1 UNL1     0.1085
     36 H         -5.286571   -2.628139   3.251001 H        1 UNL1     0.0691
     37 H         -2.349467   0.224763   4.616493 H        1 UNL1     0.0691
     38 H         -3.230224   -1.840083   8.944691 H        1 UNL1     0.0385
     39 H         -4.618477   -1.144115   9.803133 H        1 UNL1     0.0385
     40 H         -2.93648   0.579286   9.048067 H        1 UNL1     0.0789
     41 H         -3.529575   2.901019   7.887667 H        1 UNL1     0.0623
     42 H         -5.309051   4.59793   8.014696 H        1 UNL1     0.0654
     43 H         -8.173298   1.540371   8.961694 H        1 UNL1     0.0654
     44 H         -6.445794   -0.161939   8.807349 H        1 UNL1     0.0623
     45 H         -7.357135   4.970841   8.915391 H        1 UNL1     0.2921
     46 H         -6.089527   -3.660162   6.312085 H        1 UNL1     0.2922
     47 H         0.654414   -0.190751   2.922197 H        1 UNL1     0.2126
     48 H         -0.287665   -2.150019   -1.380211 H        1 UNL1     0.2101
     49 H         -3.009203   0.428628   0.536961 H        1 UNL1     0.2100
     50 H         -3.157968   -3.943075   -0.017651 H        1 UNL1     0.2102
@<TRIPOS>BOND
     1     1     2    1
     2     1     6    1
     3     2     3    1
     4     3     4    1
     5     3    29    1
     6     3    33    1
     7     4     5    1
     8     5     6    1
     9     5     7    1
    10     5    35    1
    11     7     8    1
    12     8     9   ar
    13     8    13   ar
    14     9    10   ar
    15     9    36    1
    16    10    11   ar
    17    10    26    1
    18    11    12   ar
    19    11    14    1
    20    12    13   ar
    21    12    17    1
    22    13    37    1
    23    14    15    1
    24    14    25    2
    25    15    16    1
    26    15    38    1
    27    15    39    1
    28    16    17    1
    29    16    18    1
    30    16    40    1
    31    18    19   ar
    32    18    23   ar
    33    19    20   ar
    34    19    41    1
    35    20    21   ar
    36    20    42    1
    37    21    22   ar
    38    21    24    1
    39    22    23   ar
    40    22    43    1
    41    23    44    1
    42    24    45    1
    43    26    46    1
    44    27    47    1
    45    28    48    1
    46    29    49    1
    47    30    50    1
    48     1    31    1
    49     1    27    1
    50     2    32    1
    51     2    28    1
    52     4    34    1
    53     4    30    1
