@<TRIPOS>MOLECULE
*****
 50 53 0 0 0
SMALL
GASTEIGER

@<TRIPOS>ATOM
     1 C         0.077177   -1.599709   -1.485187 C.3        1 UNL1     0.1889
     2 C         0.25867   -1.065426   -0.03897 C.3        1 UNL1     0.1342
     3 C         1.666223   -1.261035   0.54498 C.3        1 UNL1     0.1174
     4 C         2.328486   -2.558754   0.075458 C.3        1 UNL1     0.1456
     5 C         2.192585   -2.774982   -1.442811 C.3        1 UNL1     0.2326
     6 O         0.815877   -2.767127   -1.813595 O.3        1 UNL1     -0.3076
     7 O         2.994329   -1.870916   -2.224598 O.3        1 UNL1     -0.4605
     8 C         4.332881   -1.797816   -1.883333 C.ar        1 UNL1     0.1310
     9 C         5.2695   -2.823169   -2.052734 C.ar        1 UNL1     0.0226
     10 C         6.610144   -2.645869   -1.690601 C.ar        1 UNL1     0.1343
     11 C         7.052019   -1.429527   -1.171852 C.ar        1 UNL1     0.1007
     12 C         6.117882   -0.412065   -0.959856 C.ar        1 UNL1     0.1389
     13 C         4.76941   -0.591491   -1.321602 C.ar        1 UNL1     0.0229
     14 C         8.472626   -1.159484   -0.85075 C.2        1 UNL1     0.1740
     15 C         8.803168   0.265457   -0.516331 C.3        1 UNL1     0.0520
     16 C         7.683346   0.829955   0.346975 C.3        1 UNL1     0.1322
     17 O         6.422019   0.785906   -0.356008 O.3        1 UNL1     -0.4828
     18 C         7.641966   0.246553   1.76142 C.ar        1 UNL1     -0.0067
     19 C         8.648292   -0.653006   2.169236 C.ar        1 UNL1     -0.0516
     20 C         8.614233   -1.241337   3.439146 C.ar        1 UNL1     -0.0198
     21 C         7.577544   -0.944618   4.305783 C.ar        1 UNL1     0.1169
     22 C         6.590084   -0.03692   3.945439 C.ar        1 UNL1     -0.0198
     23 C         6.633919   0.56568   2.682503 C.ar        1 UNL1     -0.0516
     24 O         7.557277   -1.565813   5.519911 O.3        1 UNL1     -0.5068
     25 O         9.355856   -2.009768   -0.924271 O.2        1 UNL1     -0.2917
     26 O         7.472882   -3.685696   -1.880413 O.3        1 UNL1     -0.5058
     27 O         0.213069   -0.596938   -2.479556 O.3        1 UNL1     -0.3648
     28 O         -0.66277   -1.759237   0.822587 O.3        1 UNL1     -0.3841
     29 O         2.477735   -0.108699   0.308967 O.3        1 UNL1     -0.3863
     30 O         1.719977   -3.675609   0.759594 O.3        1 UNL1     -0.3829
     31 H         -0.965678   -1.924212   -1.570223 H        1 UNL1     0.0937
     32 H         0.0   0.0   0.0 H        1 UNL1     0.0671
     33 H         1.569328   -1.330876   1.637433 H        1 UNL1     0.0649
     34 H         3.389969   -2.556369   0.346841 H        1 UNL1     0.0683
     35 H         2.558929   -3.797489   -1.598215 H        1 UNL1     0.1085
     36 H         5.00047   -3.772642   -2.50245 H        1 UNL1     0.0691
     37 H         4.061734   0.21573   -1.1453 H        1 UNL1     0.0691
     38 H         8.890228   0.815358   -1.459494 H        1 UNL1     0.0385
     39 H         9.77374   0.299397   -0.009759 H        1 UNL1     0.0385
     40 H         7.886073   1.901236   0.480314 H        1 UNL1     0.0789
     41 H         9.467724   -0.909274   1.504023 H        1 UNL1     0.0623
     42 H         9.389634   -1.942594   3.73748 H        1 UNL1     0.0654
     43 H         5.781911   0.214098   4.622016 H        1 UNL1     0.0654
     44 H         5.851869   1.278122   2.438232 H        1 UNL1     0.0623
     45 H         8.316394   -2.169226   5.568393 H        1 UNL1     0.2921
     46 H         8.261891   -3.370083   -2.34867 H        1 UNL1     0.2922
     47 H         -0.652329   -0.225611   -2.701058 H        1 UNL1     0.2126
     48 H         -0.12546   -2.330397   1.404658 H        1 UNL1     0.2101
     49 H         3.414154   -0.334881   0.426247 H        1 UNL1     0.2100
     50 H         1.191161   -3.321231   1.50423 H        1 UNL1     0.2102
@<TRIPOS>BOND
     1     1     2    1
     2     1     6    1
     3     2     3    1
     4     3     4    1
     5     3    29    1
     6     3    33    1
     7     4     5    1
     8     5     6    1
     9     5     7    1
    10     5    35    1
    11     7     8    1
    12     8     9   ar
    13     8    13   ar
    14     9    10   ar
    15     9    36    1
    16    10    11   ar
    17    10    26    1
    18    11    12   ar
    19    11    14    1
    20    12    13   ar
    21    12    17    1
    22    13    37    1
    23    14    15    1
    24    14    25    2
    25    15    16    1
    26    15    38    1
    27    15    39    1
    28    16    17    1
    29    16    18    1
    30    16    40    1
    31    18    19   ar
    32    18    23   ar
    33    19    20   ar
    34    19    41    1
    35    20    21   ar
    36    20    42    1
    37    21    22   ar
    38    21    24    1
    39    22    23   ar
    40    22    43    1
    41    23    44    1
    42    24    45    1
    43    26    46    1
    44    27    47    1
    45    28    48    1
    46    29    49    1
    47    30    50    1
    48     1    31    1
    49     1    27    1
    50     2    32    1
    51     2    28    1
    52     4    34    1
    53     4    30    1
