@<TRIPOS>MOLECULE
*****
 50 53 0 0 0
SMALL
GASTEIGER

@<TRIPOS>ATOM
     1 C         -1.784879   -0.507626   1.152097 C.3        1 UNL1     0.1889
     2 C         -0.789447   0.522695   0.554189 C.3        1 UNL1     0.1342
     3 C         -0.141666   1.460747   1.584191 C.3        1 UNL1     0.1174
     4 C         -1.086389   1.824454   2.732378 C.3        1 UNL1     0.1456
     5 C         -1.81895   0.597416   3.305174 C.3        1 UNL1     0.2326
     6 O         -2.541122   -0.064818   2.269421 O.3        1 UNL1     -0.3076
     7 O         -0.961392   -0.285706   4.050835 O.3        1 UNL1     -0.4605
     8 C         -1.552799   -0.95721   5.105752 C.ar        1 UNL1     0.1310
     9 C         -2.128345   -0.354371   6.229421 C.ar        1 UNL1     0.0226
     10 C         -2.719669   -1.122304   7.239627 C.ar        1 UNL1     0.1343
     11 C         -2.770947   -2.511945   7.13909 C.ar        1 UNL1     0.1007
     12 C         -2.163291   -3.127648   6.041616 C.ar        1 UNL1     0.1389
     13 C         -1.566449   -2.355415   5.027286 C.ar        1 UNL1     0.0229
     14 C         -3.456909   -3.366683   8.135601 C.2        1 UNL1     0.1740
     15 C         -3.608232   -4.810944   7.757766 C.3        1 UNL1     0.0520
     16 C         -2.322457   -5.269931   7.083916 C.3        1 UNL1     0.1322
     17 O         -2.060277   -4.491571   5.895435 O.3        1 UNL1     -0.4828
     18 C         -1.133386   -5.387219   8.040513 C.ar        1 UNL1     -0.0067
     19 C         0.063034   -5.981011   7.588623 C.ar        1 UNL1     -0.0516
     20 C         1.153161   -6.146747   8.451244 C.ar        1 UNL1     -0.0198
     21 C         1.057067   -5.730491   9.767042 C.ar        1 UNL1     0.1169
     22 C         -0.096009   -5.111943   10.232503 C.ar        1 UNL1     -0.0198
     23 C         -1.1797   -4.929359   9.365131 C.ar        1 UNL1     -0.0516
     24 O         2.125599   -5.942711   10.587774 O.3        1 UNL1     -0.5068
     25 O         -3.950011   -2.932724   9.173394 O.2        1 UNL1     -0.2917
     26 O         -3.262318   -0.473038   8.309941 O.3        1 UNL1     -0.5058
     27 O         -1.207984   -1.783134   1.38244 O.3        1 UNL1     -0.3648
     28 O         -1.498225   1.346951   -0.389708 O.3        1 UNL1     -0.3841
     29 O         1.1046   0.930309   2.039811 O.3        1 UNL1     -0.3863
     30 O         -2.068121   2.770696   2.25644 O.3        1 UNL1     -0.3829
     31 H         -2.544927   -0.690067   0.384555 H        1 UNL1     0.0937
     32 H         0.0   0.0   0.0 H        1 UNL1     0.0671
     33 H         0.110805   2.399149   1.070986 H        1 UNL1     0.0649
     34 H         -0.527208   2.318812   3.534455 H        1 UNL1     0.0683
     35 H         -2.562592   1.027975   3.987446 H        1 UNL1     0.1085
     36 H         -2.170308   0.723703   6.3395 H        1 UNL1     0.0691
     37 H         -1.099189   -2.858969   4.183725 H        1 UNL1     0.0691
     38 H         -4.461003   -4.886988   7.07474 H        1 UNL1     0.0385
     39 H         -3.836257   -5.394941   8.655947 H        1 UNL1     0.0385
     40 H         -2.49771   -6.288472   6.71192 H        1 UNL1     0.0789
     41 H         0.160337   -6.324383   6.562817 H        1 UNL1     0.0623
     42 H         2.066091   -6.616854   8.094073 H        1 UNL1     0.0654
     43 H         -0.17653   -4.768571   11.256965 H        1 UNL1     0.0654
     44 H         -2.060991   -4.432823   9.759622 H        1 UNL1     0.0623
     45 H         2.677218   -6.640671   10.198819 H        1 UNL1     0.2921
     46 H         -4.128153   -0.858701   8.517318 H        1 UNL1     0.2922
     47 H         -0.81463   -1.818151   2.265563 H        1 UNL1     0.2126
     48 H         -1.19455   2.263601   -0.243876 H        1 UNL1     0.2101
     49 H         1.158547   -0.014954   1.82683 H        1 UNL1     0.2100
     50 H         -1.651637   3.308298   1.551289 H        1 UNL1     0.2102
@<TRIPOS>BOND
     1     1     2    1
     2     1     6    1
     3     2     3    1
     4     3     4    1
     5     3    29    1
     6     3    33    1
     7     4     5    1
     8     5     6    1
     9     5     7    1
    10     5    35    1
    11     7     8    1
    12     8     9   ar
    13     8    13   ar
    14     9    10   ar
    15     9    36    1
    16    10    11   ar
    17    10    26    1
    18    11    12   ar
    19    11    14    1
    20    12    13   ar
    21    12    17    1
    22    13    37    1
    23    14    15    1
    24    14    25    2
    25    15    16    1
    26    15    38    1
    27    15    39    1
    28    16    17    1
    29    16    18    1
    30    16    40    1
    31    18    19   ar
    32    18    23   ar
    33    19    20   ar
    34    19    41    1
    35    20    21   ar
    36    20    42    1
    37    21    22   ar
    38    21    24    1
    39    22    23   ar
    40    22    43    1
    41    23    44    1
    42    24    45    1
    43    26    46    1
    44    27    47    1
    45    28    48    1
    46    29    49    1
    47    30    50    1
    48     1    31    1
    49     1    27    1
    50     2    32    1
    51     2    28    1
    52     4    34    1
    53     4    30    1
