@<TRIPOS>MOLECULE
*****
 50 53 0 0 0
SMALL
GASTEIGER

@<TRIPOS>ATOM
     1 C         -0.347321   -1.338487   1.690747 C.3        1 UNL1     0.1889
     2 C         -0.467971   -0.974581   0.186434 C.3        1 UNL1     0.1342
     3 C         -1.905808   -0.951718   -0.35446 C.3        1 UNL1     0.1174
     4 C         -2.800527   -2.011408   0.293346 C.3        1 UNL1     0.1456
     5 C         -2.657374   -2.048009   1.825837 C.3        1 UNL1     0.2326
     6 O         -1.295415   -2.274786   2.181518 O.3        1 UNL1     -0.3076
     7 O         -3.230588   -0.902845   2.482607 O.3        1 UNL1     -0.4605
     8 C         -3.755199   -1.126371   3.742904 C.ar        1 UNL1     0.1310
     9 C         -4.583345   -2.196667   4.097786 C.ar        1 UNL1     0.0226
     10 C         -5.051172   -2.346019   5.408791 C.ar        1 UNL1     0.1343
     11 C         -4.682437   -1.440946   6.403134 C.ar        1 UNL1     0.1007
     12 C         -3.889337   -0.345324   6.051868 C.ar        1 UNL1     0.1389
     13 C         -3.421231   -0.193916   4.733011 C.ar        1 UNL1     0.0229
     14 C         -5.079132   -1.597291   7.821704 C.2        1 UNL1     0.1740
     15 C         -4.41325   -0.663063   8.788849 C.3        1 UNL1     0.0520
     16 C         -4.326917   0.714464   8.146258 C.3        1 UNL1     0.1322
     17 O         -3.555898   0.663474   6.925603 O.3        1 UNL1     -0.4828
     18 C         -5.679617   1.418187   8.013214 C.ar        1 UNL1     -0.0067
     19 C         -6.034004   2.010826   6.783823 C.ar        1 UNL1     -0.0516
     20 C         -7.242628   2.702984   6.642018 C.ar        1 UNL1     -0.0198
     21 C         -8.100167   2.815613   7.721726 C.ar        1 UNL1     0.1169
     22 C         -7.794365   2.214222   8.935668 C.ar        1 UNL1     -0.0198
     23 C         -6.594301   1.506274   9.072454 C.ar        1 UNL1     -0.0516
     24 O         -9.250676   3.529419   7.556772 O.3        1 UNL1     -0.5068
     25 O         -5.838716   -2.477191   8.218308 O.2        1 UNL1     -0.2917
     26 O         -5.856456   -3.411115   5.689276 O.3        1 UNL1     -0.5058
     27 O         -0.241371   -0.206586   2.539487 O.3        1 UNL1     -0.3648
     28 O         0.262205   -1.951096   -0.57905 O.3        1 UNL1     -0.3841
     29 O         -2.457623   0.363907   -0.272224 O.3        1 UNL1     -0.3863
     30 O         -2.456111   -3.310164   -0.236087 O.3        1 UNL1     -0.3829
     31 H         0.61032   -1.856598   1.81143 H        1 UNL1     0.0937
     32 H         0.0   0.0   0.0 H        1 UNL1     0.0671
     33 H         -1.864061   -1.184035   -1.427776 H        1 UNL1     0.0649
     34 H         -3.848408   -1.826451   0.032315 H        1 UNL1     0.0683
     35 H         -3.217851   -2.943388   2.122554 H        1 UNL1     0.1085
     36 H         -4.860115   -2.96461   3.383795 H        1 UNL1     0.0691
     37 H         -2.806088   0.668382   4.48495 H        1 UNL1     0.0691
     38 H         -3.416042   -1.062621   9.002051 H        1 UNL1     0.0385
     39 H         -4.983116   -0.648657   9.724169 H        1 UNL1     0.0385
     40 H         -3.734212   1.348934   8.819064 H        1 UNL1     0.0789
     41 H         -5.373887   1.944355   5.923894 H        1 UNL1     0.0623
     42 H         -7.499122   3.165792   5.692265 H        1 UNL1     0.0654
     43 H         -8.465659   2.283415   9.783304 H        1 UNL1     0.0654
     44 H         -6.392438   1.040093   10.032023 H        1 UNL1     0.0623
     45 H         -9.01464   4.443152   7.328529 H        1 UNL1     0.2921
     46 H         -5.464646   -3.932624   6.407556 H        1 UNL1     0.2922
     47 H         0.50312   0.347762   2.266923 H        1 UNL1     0.2126
     48 H         1.196735   -1.879771   -0.304643 H        1 UNL1     0.2101
     49 H         -2.018439   0.94657   -0.912081 H        1 UNL1     0.2100
     50 H         -2.689487   -3.319488   -1.187487 H        1 UNL1     0.2102
@<TRIPOS>BOND
     1     1     2    1
     2     1     6    1
     3     2     3    1
     4     3     4    1
     5     3    29    1
     6     3    33    1
     7     4     5    1
     8     5     6    1
     9     5     7    1
    10     5    35    1
    11     7     8    1
    12     8     9   ar
    13     8    13   ar
    14     9    10   ar
    15     9    36    1
    16    10    11   ar
    17    10    26    1
    18    11    12   ar
    19    11    14    1
    20    12    13   ar
    21    12    17    1
    22    13    37    1
    23    14    15    1
    24    14    25    2
    25    15    16    1
    26    15    38    1
    27    15    39    1
    28    16    17    1
    29    16    18    1
    30    16    40    1
    31    18    19   ar
    32    18    23   ar
    33    19    20   ar
    34    19    41    1
    35    20    21   ar
    36    20    42    1
    37    21    22   ar
    38    21    24    1
    39    22    23   ar
    40    22    43    1
    41    23    44    1
    42    24    45    1
    43    26    46    1
    44    27    47    1
    45    28    48    1
    46    29    49    1
    47    30    50    1
    48     1    31    1
    49     1    27    1
    50     2    32    1
    51     2    28    1
    52     4    34    1
    53     4    30    1
