@<TRIPOS>MOLECULE
*****
 50 53 0 0 0
SMALL
GASTEIGER

@<TRIPOS>ATOM
     1 C         -0.038289   2.164473   0.290505 C.3        1 UNL1     0.1889
     2 C         0.114875   0.906844   -0.606629 C.3        1 UNL1     0.1342
     3 C         1.44033   0.828103   -1.379568 C.3        1 UNL1     0.1174
     4 C         1.952134   2.201368   -1.821515 C.3        1 UNL1     0.1456
     5 C         1.891767   3.245394   -0.69159 C.3        1 UNL1     0.2326
     6 O         0.557044   3.355663   -0.202487 O.3        1 UNL1     -0.3076
     7 O         2.85918   3.019589   0.349777 O.3        1 UNL1     -0.4605
     8 C         4.179821   2.946026   -0.05522 C.ar        1 UNL1     0.1310
     9 C         4.674369   2.104521   -1.057514 C.ar        1 UNL1     0.0226
     10 C         6.029625   2.115588   -1.408316 C.ar        1 UNL1     0.1343
     11 C         6.919713   2.986334   -0.781111 C.ar        1 UNL1     0.1007
     12 C         6.445537   3.802153   0.249608 C.ar        1 UNL1     0.1389
     13 C         5.083302   3.788947   0.603966 C.ar        1 UNL1     0.0229
     14 C         8.344565   3.099331   -1.169932 C.2        1 UNL1     0.1740
     15 C         9.099058   4.237423   -0.54781 C.3        1 UNL1     0.0520
     16 C         8.671757   4.359935   0.908336 C.3        1 UNL1     0.1322
     17 O         7.253764   4.618197   1.006647 O.3        1 UNL1     -0.4828
     18 C         9.171382   3.216997   1.79535 C.ar        1 UNL1     -0.0067
     19 C         9.976757   3.510506   2.91492 C.ar        1 UNL1     -0.0516
     20 C         10.489412   2.485862   3.71944 C.ar        1 UNL1     -0.0198
     21 C         10.210631   1.166318   3.411363 C.ar        1 UNL1     0.1169
     22 C         9.39308   0.847108   2.335001 C.ar        1 UNL1     -0.0198
     23 C         8.865152   1.872375   1.541166 C.ar        1 UNL1     -0.0516
     24 O         10.758432   0.193894   4.195395 O.3        1 UNL1     -0.5068
     25 O         8.877172   2.373033   -2.00498 O.2        1 UNL1     -0.2917
     26 O         6.448233   1.269442   -2.393398 O.3        1 UNL1     -0.5058
     27 O         0.298617   1.934092   1.649257 O.3        1 UNL1     -0.3648
     28 O         -0.947966   0.907134   -1.57775 O.3        1 UNL1     -0.3841
     29 O         2.413772   0.085614   -0.642512 O.3        1 UNL1     -0.3863
     30 O         1.15372   2.670306   -2.929812 O.3        1 UNL1     -0.3829
     31 H         -1.107141   2.403345   0.314478 H        1 UNL1     0.0937
     32 H         0.0   -0.0   0.0 H        1 UNL1     0.0671
     33 H         1.260953   0.246281   -2.294461 H        1 UNL1     0.0649
     34 H         2.983367   2.117872   -2.182053 H        1 UNL1     0.0683
     35 H         2.12677   4.192327   -1.193556 H        1 UNL1     0.1085
     36 H         4.023429   1.444934   -1.620845 H        1 UNL1     0.0691
     37 H         4.739499   4.432891   1.410582 H        1 UNL1     0.0691
     38 H         8.852301   5.144695   -1.1095 H        1 UNL1     0.0385
     39 H         10.174064   4.053746   -0.649811 H        1 UNL1     0.0385
     40 H         9.14443   5.266806   1.309191 H        1 UNL1     0.0789
     41 H         10.217581   4.537785   3.17251 H        1 UNL1     0.0623
     42 H         11.119011   2.724487   4.573064 H        1 UNL1     0.0654
     43 H         9.156066   -0.182213   2.093684 H        1 UNL1     0.0654
     44 H         8.221631   1.587151   0.714502 H        1 UNL1     0.0623
     45 H         10.613263   0.431821   5.125466 H        1 UNL1     0.2921
     46 H         7.014465   0.581254   -2.009743 H        1 UNL1     0.2922
     47 H         0.918033   2.609213   1.959732 H        1 UNL1     0.2126
     48 H         -0.616624   0.417689   -2.355173 H        1 UNL1     0.2101
     49 H         1.997171   -0.329329   0.129537 H        1 UNL1     0.2100
     50 H         0.893156   3.596064   -2.743285 H        1 UNL1     0.2102
@<TRIPOS>BOND
     1     1     2    1
     2     1     6    1
     3     2     3    1
     4     3     4    1
     5     3    29    1
     6     3    33    1
     7     4     5    1
     8     5     6    1
     9     5     7    1
    10     5    35    1
    11     7     8    1
    12     8     9   ar
    13     8    13   ar
    14     9    10   ar
    15     9    36    1
    16    10    11   ar
    17    10    26    1
    18    11    12   ar
    19    11    14    1
    20    12    13   ar
    21    12    17    1
    22    13    37    1
    23    14    15    1
    24    14    25    2
    25    15    16    1
    26    15    38    1
    27    15    39    1
    28    16    17    1
    29    16    18    1
    30    16    40    1
    31    18    19   ar
    32    18    23   ar
    33    19    20   ar
    34    19    41    1
    35    20    21   ar
    36    20    42    1
    37    21    22   ar
    38    21    24    1
    39    22    23   ar
    40    22    43    1
    41    23    44    1
    42    24    45    1
    43    26    46    1
    44    27    47    1
    45    28    48    1
    46    29    49    1
    47    30    50    1
    48     1    31    1
    49     1    27    1
    50     2    32    1
    51     2    28    1
    52     4    34    1
    53     4    30    1
