@<TRIPOS>MOLECULE
*****
 50 53 0 0 0
SMALL
GASTEIGER

@<TRIPOS>ATOM
     1 C         -0.389285   -1.380717   1.647083 C.3        1 UNL1     0.1889
     2 C         -0.49167   -0.968575   0.1539 C.3        1 UNL1     0.1342
     3 C         -1.925041   -0.895659   -0.394366 C.3        1 UNL1     0.1174
     4 C         -2.848311   -1.953304   0.215614 C.3        1 UNL1     0.1456
     5 C         -2.716015   -2.039764   1.747079 C.3        1 UNL1     0.2326
     6 O         -1.362029   -2.309044   2.10356 O.3        1 UNL1     -0.3076
     7 O         -3.266751   -0.901972   2.435149 O.3        1 UNL1     -0.4605
     8 C         -3.801196   -1.150645   3.686571 C.ar        1 UNL1     0.1310
     9 C         -4.651151   -2.214412   4.007938 C.ar        1 UNL1     0.0226
     10 C         -5.127639   -2.391463   5.312359 C.ar        1 UNL1     0.1343
     11 C         -4.746233   -1.52184   6.333205 C.ar        1 UNL1     0.1007
     12 C         -3.930851   -0.432192   6.016026 C.ar        1 UNL1     0.1389
     13 C         -3.454009   -0.252873   4.703815 C.ar        1 UNL1     0.0229
     14 C         -5.15222   -1.710258   7.745235 C.2        1 UNL1     0.1740
     15 C         -4.473046   -0.816425   8.740893 C.3        1 UNL1     0.0520
     16 C         -4.357619   0.576665   8.137624 C.3        1 UNL1     0.1322
     17 O         -3.582216   0.545151   6.919088 O.3        1 UNL1     -0.4828
     18 C         -5.696068   1.309614   8.019041 C.ar        1 UNL1     -0.0067
     19 C         -5.7103   2.669681   7.64725 C.ar        1 UNL1     -0.0516
     20 C         -6.913271   3.382198   7.575535 C.ar        1 UNL1     -0.0198
     21 C         -8.105298   2.749407   7.879635 C.ar        1 UNL1     0.1169
     22 C         -8.126953   1.40222   8.216468 C.ar        1 UNL1     -0.0198
     23 C         -6.925993   0.684688   8.270333 C.ar        1 UNL1     -0.0516
     24 O         -9.252876   3.485292   7.835622 O.3        1 UNL1     -0.5068
     25 O         -5.930191   -2.58622   8.11393 O.2        1 UNL1     -0.2917
     26 O         -5.954303   -3.448386   5.559597 O.3        1 UNL1     -0.5058
     27 O         -0.262611   -0.277899   2.530561 O.3        1 UNL1     -0.3648
     28 O         0.220604   -1.938214   -0.636778 O.3        1 UNL1     -0.3841
     29 O         -2.446691   0.429415   -0.275228 O.3        1 UNL1     -0.3863
     30 O         -2.530701   -3.243089   -0.351192 O.3        1 UNL1     -0.3829
     31 H         0.555266   -1.92452   1.757449 H        1 UNL1     0.0937
     32 H         0.0   0.0   0.0 H        1 UNL1     0.0671
     33 H         -1.88172   -1.09619   -1.47401 H        1 UNL1     0.0649
     34 H         -3.889897   -1.736037   -0.045719 H        1 UNL1     0.0683
     35 H         -3.299043   -2.930379   2.013089 H        1 UNL1     0.1085
     36 H         -4.939264   -2.956601   3.271551 H        1 UNL1     0.0691
     37 H         -2.821456   0.604102   4.482534 H        1 UNL1     0.0691
     38 H         -3.484593   -1.240825   8.946738 H        1 UNL1     0.0385
     39 H         -5.046744   -0.81733   9.673979 H        1 UNL1     0.0385
     40 H         -3.755985   1.180562   8.830346 H        1 UNL1     0.0789
     41 H         -4.787124   3.191528   7.412574 H        1 UNL1     0.0623
     42 H         -6.909946   4.433683   7.299166 H        1 UNL1     0.0654
     43 H         -9.056349   0.892989   8.441892 H        1 UNL1     0.0654
     44 H         -6.981168   -0.368909   8.526719 H        1 UNL1     0.0623
     45 H         -9.017373   4.424935   7.901389 H        1 UNL1     0.2921
     46 H         -5.744806   -3.826699   6.42816 H        1 UNL1     0.2922
     47 H         -0.34844   -0.572333   3.448059 H        1 UNL1     0.2126
     48 H         1.171708   -1.786953   -0.47475 H        1 UNL1     0.2101
     49 H         -3.002342   0.495281   0.517683 H        1 UNL1     0.2100
     50 H         -2.779068   -3.225474   -1.298671 H        1 UNL1     0.2102
@<TRIPOS>BOND
     1     1     2    1
     2     1     6    1
     3     2     3    1
     4     3     4    1
     5     3    29    1
     6     3    33    1
     7     4     5    1
     8     5     6    1
     9     5     7    1
    10     5    35    1
    11     7     8    1
    12     8     9   ar
    13     8    13   ar
    14     9    10   ar
    15     9    36    1
    16    10    11   ar
    17    10    26    1
    18    11    12   ar
    19    11    14    1
    20    12    13   ar
    21    12    17    1
    22    13    37    1
    23    14    15    1
    24    14    25    2
    25    15    16    1
    26    15    38    1
    27    15    39    1
    28    16    17    1
    29    16    18    1
    30    16    40    1
    31    18    19   ar
    32    18    23   ar
    33    19    20   ar
    34    19    41    1
    35    20    21   ar
    36    20    42    1
    37    21    22   ar
    38    21    24    1
    39    22    23   ar
    40    22    43    1
    41    23    44    1
    42    24    45    1
    43    26    46    1
    44    27    47    1
    45    28    48    1
    46    29    49    1
    47    30    50    1
    48     1    31    1
    49     1    27    1
    50     2    32    1
    51     2    28    1
    52     4    34    1
    53     4    30    1
