@<TRIPOS>MOLECULE
*****
 50 53 0 0 0
SMALL
GASTEIGER

@<TRIPOS>ATOM
     1 C         -0.335236   -1.330369   1.69957 C.3        1 UNL1     0.1889
     2 C         -0.464016   -0.975017   0.193887 C.3        1 UNL1     0.1342
     3 C         -1.904413   -0.959603   -0.34042 C.3        1 UNL1     0.1174
     4 C         -2.792761   -2.018561   0.317276 C.3        1 UNL1     0.1456
     5 C         -2.642382   -2.04639   1.84926 C.3        1 UNL1     0.2326
     6 O         -1.278077   -2.266959   2.199816 O.3        1 UNL1     -0.3076
     7 O         -3.216161   -0.899481   2.502481 O.3        1 UNL1     -0.4605
     8 C         -3.727415   -1.116142   3.769448 C.ar        1 UNL1     0.1310
     9 C         -4.545645   -2.188532   4.140635 C.ar        1 UNL1     0.0226
     10 C         -5.000086   -2.330281   5.457181 C.ar        1 UNL1     0.1343
     11 C         -4.627424   -1.415155   6.440801 C.ar        1 UNL1     0.1007
     12 C         -3.844356   -0.317621   6.073365 C.ar        1 UNL1     0.1389
     13 C         -3.389722   -0.173878   4.74895 C.ar        1 UNL1     0.0229
     14 C         -5.009674   -1.562617   7.86428 C.2        1 UNL1     0.1740
     15 C         -4.340319   -0.616774   8.817639 C.3        1 UNL1     0.0520
     16 C         -4.268451   0.756105   8.163426 C.3        1 UNL1     0.1322
     17 O         -3.508763   0.700055   6.935907 O.3        1 UNL1     -0.4828
     18 C         -5.626598   1.450633   8.037759 C.ar        1 UNL1     -0.0067
     19 C         -6.002518   2.018321   6.803001 C.ar        1 UNL1     -0.0516
     20 C         -7.21668   2.701819   6.666608 C.ar        1 UNL1     -0.0198
     21 C         -8.058409   2.830574   7.756902 C.ar        1 UNL1     0.1169
     22 C         -7.731256   2.253611   8.977116 C.ar        1 UNL1     -0.0198
     23 C         -6.525647   1.554188   9.108918 C.ar        1 UNL1     -0.0516
     24 O         -9.214923   3.535563   7.596078 O.3        1 UNL1     -0.5068
     25 O         -5.760105   -2.443878   8.275032 O.2        1 UNL1     -0.2917
     26 O         -5.796194   -3.397924   5.753718 O.3        1 UNL1     -0.5058
     27 O         -0.228929   -0.193548   2.541665 O.3        1 UNL1     -0.3648
     28 O         0.265683   -1.953379   -0.56969 O.3        1 UNL1     -0.3841
     29 O         -2.459998   0.354712   -0.262741 O.3        1 UNL1     -0.3863
     30 O         -2.446701   -3.319086   -0.206714 O.3        1 UNL1     -0.3829
     31 H         0.624588   -1.844811   1.818595 H        1 UNL1     0.0937
     32 H         0.0   0.0   0.0 H        1 UNL1     0.0671
     33 H         -1.866914   -1.197613   -1.412644 H        1 UNL1     0.0649
     34 H         -3.842422   -1.838312   0.060132 H        1 UNL1     0.0683
     35 H         -3.198642   -2.941899   2.153429 H        1 UNL1     0.1085
     36 H         -4.824517   -2.963759   3.435388 H        1 UNL1     0.0691
     37 H         -2.782206   0.690095   4.488246 H        1 UNL1     0.0691
     38 H         -3.338725   -1.008646   9.024454 H        1 UNL1     0.0385
     39 H         -4.901353   -0.598364   9.758213 H        1 UNL1     0.0385
     40 H         -3.673243   1.399433   8.825527 H        1 UNL1     0.0789
     41 H         -5.355108   1.938892   5.934553 H        1 UNL1     0.0623
     42 H         -7.489835   3.145435   5.712353 H        1 UNL1     0.0654
     43 H         -8.390041   2.335475   9.833394 H        1 UNL1     0.0654
     44 H         -6.30695   1.107121   10.073878 H        1 UNL1     0.0623
     45 H         -8.987117   4.445244   7.344478 H        1 UNL1     0.2921
     46 H         -5.393733   -3.912139   6.471367 H        1 UNL1     0.2922
     47 H         0.515071   0.359519   2.265186 H        1 UNL1     0.2126
     48 H         1.198478   -1.889327   -0.287692 H        1 UNL1     0.2101
     49 H         -2.019907   0.937345   -0.902 H        1 UNL1     0.2100
     50 H         -2.679236   -3.332386   -1.158272 H        1 UNL1     0.2102
@<TRIPOS>BOND
     1     1     2    1
     2     1     6    1
     3     2     3    1
     4     3     4    1
     5     3    29    1
     6     3    33    1
     7     4     5    1
     8     5     6    1
     9     5     7    1
    10     5    35    1
    11     7     8    1
    12     8     9   ar
    13     8    13   ar
    14     9    10   ar
    15     9    36    1
    16    10    11   ar
    17    10    26    1
    18    11    12   ar
    19    11    14    1
    20    12    13   ar
    21    12    17    1
    22    13    37    1
    23    14    15    1
    24    14    25    2
    25    15    16    1
    26    15    38    1
    27    15    39    1
    28    16    17    1
    29    16    18    1
    30    16    40    1
    31    18    19   ar
    32    18    23   ar
    33    19    20   ar
    34    19    41    1
    35    20    21   ar
    36    20    42    1
    37    21    22   ar
    38    21    24    1
    39    22    23   ar
    40    22    43    1
    41    23    44    1
    42    24    45    1
    43    26    46    1
    44    27    47    1
    45    28    48    1
    46    29    49    1
    47    30    50    1
    48     1    31    1
    49     1    27    1
    50     2    32    1
    51     2    28    1
    52     4    34    1
    53     4    30    1
