@<TRIPOS>MOLECULE
*****
 50 53 0 0 0
SMALL
GASTEIGER

@<TRIPOS>ATOM
     1 C         -0.316371   -1.374972   1.667383 C.3        1 UNL1     0.1889
     2 C         -0.459772   -0.980997   0.172673 C.3        1 UNL1     0.1342
     3 C         -1.905017   -0.95568   -0.347993 C.3        1 UNL1     0.1174
     4 C         -2.78466   -2.033801   0.289972 C.3        1 UNL1     0.1456
     5 C         -2.620246   -2.100989   1.819291 C.3        1 UNL1     0.2326
     6 O         -1.252249   -2.326828   2.151631 O.3        1 UNL1     -0.3076
     7 O         -3.190928   -0.973013   2.507268 O.3        1 UNL1     -0.4605
     8 C         -3.700279   -1.226299   3.768194 C.ar        1 UNL1     0.1310
     9 C         -4.514057   -2.311624   4.110445 C.ar        1 UNL1     0.0226
     10 C         -4.966843   -2.491165   5.422944 C.ar        1 UNL1     0.1343
     11 C         -4.596886   -1.601905   6.431006 C.ar        1 UNL1     0.1007
     12 C         -3.818364   -0.491685   6.093219 C.ar        1 UNL1     0.1389
     13 C         -3.3654   -0.309934   4.772909 C.ar        1 UNL1     0.0229
     14 C         -4.97737   -1.789808   7.850188 C.2        1 UNL1     0.1740
     15 C         -4.310865   -0.867863   8.828625 C.3        1 UNL1     0.0520
     16 C         -4.24484   0.5227   8.212238 C.3        1 UNL1     0.1322
     17 O         -3.485972   0.503261   6.983087 O.3        1 UNL1     -0.4828
     18 C         -5.605759   1.21514   8.106654 C.ar        1 UNL1     -0.0067
     19 C         -5.737978   2.36282   7.298221 C.ar        1 UNL1     -0.0516
     20 C         -6.956326   3.047627   7.216795 C.ar        1 UNL1     -0.0198
     21 C         -8.04542   2.600098   7.943032 C.ar        1 UNL1     0.1169
     22 C         -7.955543   1.45366   8.721775 C.ar        1 UNL1     -0.0198
     23 C         -6.742414   0.758056   8.788919 C.ar        1 UNL1     -0.0516
     24 O         -9.204937   3.314483   7.868377 O.3        1 UNL1     -0.5068
     25 O         -5.724053   -2.6849   8.237179 O.2        1 UNL1     -0.2917
     26 O         -5.75858   -3.569613   5.690687 O.3        1 UNL1     -0.5058
     27 O         -0.20525   -0.260113   2.537744 O.3        1 UNL1     -0.3648
     28 O         0.265393   -1.937189   -0.62265 O.3        1 UNL1     -0.3841
     29 O         -2.463178   0.35464   -0.231154 O.3        1 UNL1     -0.3863
     30 O         -2.440121   -3.319324   -0.270755 O.3        1 UNL1     -0.3829
     31 H         0.645791   -1.889685   1.764304 H        1 UNL1     0.0937
     32 H         0.0   0.0   0.0 H        1 UNL1     0.0671
     33 H         -1.876699   -1.165663   -1.426337 H        1 UNL1     0.0649
     34 H         -3.837073   -1.849827   0.047111 H        1 UNL1     0.0683
     35 H         -3.171452   -3.005622   2.105104 H        1 UNL1     0.1085
     36 H         -4.790531   -3.068305   3.384417 H        1 UNL1     0.0691
     37 H         -2.761438   0.563209   4.535541 H        1 UNL1     0.0691
     38 H         -3.307595   -1.261371   9.023886 H        1 UNL1     0.0385
     39 H         -4.871177   -0.877415   9.769761 H        1 UNL1     0.0385
     40 H         -3.651561   1.14994   8.891289 H        1 UNL1     0.0789
     41 H         -4.895458   2.739504   6.725578 H        1 UNL1     0.0623
     42 H         -7.042372   3.938241   6.599209 H        1 UNL1     0.0654
     43 H         -8.806374   1.085827   9.282754 H        1 UNL1     0.0654
     44 H         -6.710981   -0.139658   9.398808 H        1 UNL1     0.0623
     45 H         -9.040263   4.204142   8.220664 H        1 UNL1     0.2921
     46 H         -5.365504   -4.088938   6.409857 H        1 UNL1     0.2922
     47 H         0.521821   0.312845   2.256769 H        1 UNL1     0.2126
     48 H         1.21121   -1.816804   -0.411293 H        1 UNL1     0.2101
     49 H         -2.036418   0.95286   -0.865033 H        1 UNL1     0.2100
     50 H         -2.707195   -3.318502   -1.213296 H        1 UNL1     0.2102
@<TRIPOS>BOND
     1     1     2    1
     2     1     6    1
     3     2     3    1
     4     3     4    1
     5     3    29    1
     6     3    33    1
     7     4     5    1
     8     5     6    1
     9     5     7    1
    10     5    35    1
    11     7     8    1
    12     8     9   ar
    13     8    13   ar
    14     9    10   ar
    15     9    36    1
    16    10    11   ar
    17    10    26    1
    18    11    12   ar
    19    11    14    1
    20    12    13   ar
    21    12    17    1
    22    13    37    1
    23    14    15    1
    24    14    25    2
    25    15    16    1
    26    15    38    1
    27    15    39    1
    28    16    17    1
    29    16    18    1
    30    16    40    1
    31    18    19   ar
    32    18    23   ar
    33    19    20   ar
    34    19    41    1
    35    20    21   ar
    36    20    42    1
    37    21    22   ar
    38    21    24    1
    39    22    23   ar
    40    22    43    1
    41    23    44    1
    42    24    45    1
    43    26    46    1
    44    27    47    1
    45    28    48    1
    46    29    49    1
    47    30    50    1
    48     1    31    1
    49     1    27    1
    50     2    32    1
    51     2    28    1
    52     4    34    1
    53     4    30    1
