@<TRIPOS>MOLECULE
*****
 50 53 0 0 0
SMALL
GASTEIGER

@<TRIPOS>ATOM
     1 C         0.988669   1.945067   -0.100262 C.3        1 UNL1     0.1889
     2 C         0.834157   0.517523   0.48981 C.3        1 UNL1     0.1342
     3 C         0.628139   0.471528   2.01162 C.3        1 UNL1     0.1174
     4 C         1.39898   1.569779   2.748348 C.3        1 UNL1     0.1456
     5 C         1.235324   2.950637   2.087432 C.3        1 UNL1     0.2326
     6 O         1.652899   2.890215   0.725504 O.3        1 UNL1     -0.3076
     7 O         -0.079405   3.512594   2.251787 O.3        1 UNL1     -0.4605
     8 C         -0.30301   4.725315   1.62502 C.ar        1 UNL1     0.1310
     9 C         0.687493   5.554994   1.088516 C.ar        1 UNL1     0.0226
     10 C         0.358049   6.759741   0.456097 C.ar        1 UNL1     0.1343
     11 C         -0.973016   7.152895   0.323675 C.ar        1 UNL1     0.1007
     12 C         -1.968106   6.352836   0.891552 C.ar        1 UNL1     0.1389
     13 C         -1.6364   5.142818   1.529721 C.ar        1 UNL1     0.0229
     14 C         -1.383144   8.373608   -0.408316 C.2        1 UNL1     0.1740
     15 C         -2.857243   8.52457   -0.64452 C.3        1 UNL1     0.0520
     16 C         -3.594484   8.078245   0.61056 C.3        1 UNL1     0.1322
     17 O         -3.299752   6.697014   0.914538 O.3        1 UNL1     -0.4828
     18 C         -3.433536   9.036372   1.793274 C.ar        1 UNL1     -0.0067
     19 C         -3.371073   10.424924   1.556137 C.ar        1 UNL1     -0.0516
     20 C         -3.176817   11.325624   2.610162 C.ar        1 UNL1     -0.0198
     21 C         -3.036562   10.850916   3.901985 C.ar        1 UNL1     0.1169
     22 C         -3.127015   9.491485   4.171439 C.ar        1 UNL1     -0.0198
     23 C         -3.339712   8.591937   3.11995 C.ar        1 UNL1     -0.0516
     24 O         -2.810866   11.755175   4.897865 O.3        1 UNL1     -0.5068
     25 O         -0.58523   9.183717   -0.87258 O.2        1 UNL1     -0.2917
     26 O         1.371343   7.523758   -0.045 O.3        1 UNL1     -0.5058
     27 O         -0.217008   2.470415   -0.63237 O.3        1 UNL1     -0.3648
     28 O         2.029703   -0.229078   0.196614 O.3        1 UNL1     -0.3841
     29 O         -0.763838   0.460398   2.334744 O.3        1 UNL1     -0.3863
     30 O         2.802361   1.229652   2.771306 O.3        1 UNL1     -0.3829
     31 H         1.649936   1.854607   -0.968952 H        1 UNL1     0.0937
     32 H         0.0   0.0   0.0 H        1 UNL1     0.0671
     33 H         1.019502   -0.489279   2.374116 H        1 UNL1     0.0649
     34 H         1.065661   1.625862   3.790535 H        1 UNL1     0.0683
     35 H         1.959328   3.583988   2.615225 H        1 UNL1     0.1085
     36 H         1.735943   5.278545   1.109728 H        1 UNL1     0.0691
     37 H         -2.429591   4.53851   1.964639 H        1 UNL1     0.0691
     38 H         -3.121269   7.896519   -1.502057 H        1 UNL1     0.0385
     39 H         -3.074364   9.566391   -0.903836 H        1 UNL1     0.0385
     40 H         -4.66739   8.084682   0.375287 H        1 UNL1     0.0789
     41 H         -3.469187   10.822022   0.549987 H        1 UNL1     0.0623
     42 H         -3.118529   12.393201   2.412947 H        1 UNL1     0.0654
     43 H         -3.033616   9.110126   5.181267 H        1 UNL1     0.0654
     44 H         -3.41573   7.53768   3.368159 H        1 UNL1     0.0623
     45 H         -2.143665   12.389974   4.590308 H        1 UNL1     0.2921
     46 H         1.847676   7.023072   -0.726053 H        1 UNL1     0.2922
     47 H         -0.610223   1.8423   -1.254232 H        1 UNL1     0.2126
     48 H         2.670787   -0.019148   0.902782 H        1 UNL1     0.2101
     49 H         -0.880068   0.327   3.28894 H        1 UNL1     0.2100
     50 H         2.91435   0.450918   3.355039 H        1 UNL1     0.2102
@<TRIPOS>BOND
     1     1     2    1
     2     1     6    1
     3     2     3    1
     4     3     4    1
     5     3    29    1
     6     3    33    1
     7     4     5    1
     8     5     6    1
     9     5     7    1
    10     5    35    1
    11     7     8    1
    12     8     9   ar
    13     8    13   ar
    14     9    10   ar
    15     9    36    1
    16    10    11   ar
    17    10    26    1
    18    11    12   ar
    19    11    14    1
    20    12    13   ar
    21    12    17    1
    22    13    37    1
    23    14    15    1
    24    14    25    2
    25    15    16    1
    26    15    38    1
    27    15    39    1
    28    16    17    1
    29    16    18    1
    30    16    40    1
    31    18    19   ar
    32    18    23   ar
    33    19    20   ar
    34    19    41    1
    35    20    21   ar
    36    20    42    1
    37    21    22   ar
    38    21    24    1
    39    22    23   ar
    40    22    43    1
    41    23    44    1
    42    24    45    1
    43    26    46    1
    44    27    47    1
    45    28    48    1
    46    29    49    1
    47    30    50    1
    48     1    31    1
    49     1    27    1
    50     2    32    1
    51     2    28    1
    52     4    34    1
    53     4    30    1
