@<TRIPOS>MOLECULE
*****
 50 53 0 0 0
SMALL
GASTEIGER

@<TRIPOS>ATOM
     1 C         1.138436   1.147178   -1.469268 C.3        1 UNL1     0.1889
     2 C         -0.168312   0.468468   -0.977635 C.3        1 UNL1     0.1342
     3 C         -0.749276   -0.577681   -1.941232 C.3        1 UNL1     0.1174
     4 C         -0.533346   -0.214134   -3.412397 C.3        1 UNL1     0.1456
     5 C         0.908265   0.242101   -3.702175 C.3        1 UNL1     0.2326
     6 O         1.243673   1.350684   -2.870663 O.3        1 UNL1     -0.3076
     7 O         1.87129   -0.825482   -3.637585 O.3        1 UNL1     -0.4605
     8 C         2.797305   -0.74541   -2.613079 C.ar        1 UNL1     0.1310
     9 C         3.325234   -1.834307   -1.911013 C.ar        1 UNL1     0.0226
     10 C         4.274043   -1.651062   -0.898055 C.ar        1 UNL1     0.1343
     11 C         4.736071   -0.375034   -0.578488 C.ar        1 UNL1     0.1007
     12 C         4.186051   0.723479   -1.244469 C.ar        1 UNL1     0.1389
     13 C         3.230094   0.539171   -2.261134 C.ar        1 UNL1     0.0229
     14 C         5.798388   -0.130988   0.424547 C.2        1 UNL1     0.1740
     15 C         6.328181   1.271754   0.480983 C.3        1 UNL1     0.0520
     16 C         5.159109   2.234855   0.327155 C.3        1 UNL1     0.1322
     17 O         4.488279   2.029467   -0.935728 O.3        1 UNL1     -0.4828
     18 C         4.227936   2.272518   1.541331 C.ar        1 UNL1     -0.0067
     19 C         4.776628   2.434176   2.830135 C.ar        1 UNL1     -0.0516
     20 C         3.957859   2.425431   3.965699 C.ar        1 UNL1     -0.0198
     21 C         2.592822   2.248892   3.826646 C.ar        1 UNL1     0.1169
     22 C         2.019116   2.120673   2.56837 C.ar        1 UNL1     -0.0198
     23 C         2.83554   2.147864   1.43137 C.ar        1 UNL1     -0.0516
     24 O         1.831707   2.207925   4.957763 O.3        1 UNL1     -0.5068
     25 O         6.28784   -1.016979   1.120206 O.2        1 UNL1     -0.2917
     26 O         4.748483   -2.754527   -0.250864 O.3        1 UNL1     -0.5058
     27 O         2.315146   0.561542   -0.935255 O.3        1 UNL1     -0.3648
     28 O         -1.17021   1.486168   -0.795449 O.3        1 UNL1     -0.3841
     29 O         -0.271367   -1.885149   -1.618338 O.3        1 UNL1     -0.3863
     30 O         -1.438909   0.850818   -3.775057 O.3        1 UNL1     -0.3829
     31 H         1.134875   2.164286   -1.06238 H        1 UNL1     0.0937
     32 H         0.0   -0.0   0.0 H        1 UNL1     0.0671
     33 H         -1.835594   -0.615907   -1.779455 H        1 UNL1     0.0649
     34 H         -0.776066   -1.072057   -4.049152 H        1 UNL1     0.0683
     35 H         0.864875   0.617613   -4.732217 H        1 UNL1     0.1085
     36 H         3.048471   -2.855266   -2.150107 H        1 UNL1     0.0691
     37 H         2.816513   1.410865   -2.763721 H        1 UNL1     0.0691
     38 H         7.045964   1.387875   -0.338059 H        1 UNL1     0.0385
     39 H         6.861885   1.416091   1.426554 H        1 UNL1     0.0385
     40 H         5.580683   3.246419   0.252771 H        1 UNL1     0.0789
     41 H         5.846139   2.565257   2.966569 H        1 UNL1     0.0623
     42 H         4.394292   2.539137   4.954945 H        1 UNL1     0.0654
     43 H         0.949586   1.99697   2.44707 H        1 UNL1     0.0654
     44 H         2.352375   2.055447   0.463457 H        1 UNL1     0.0623
     45 H         0.898694   2.292933   4.702855 H        1 UNL1     0.2921
     46 H         5.145284   -3.361833   -0.895177 H        1 UNL1     0.2922
     47 H         2.208879   -0.397291   -0.863108 H        1 UNL1     0.2126
     48 H         -1.061417   1.826209   0.113544 H        1 UNL1     0.2101
     49 H         -0.706969   -2.544251   -2.181925 H        1 UNL1     0.2100
     50 H         -2.291878   0.688929   -3.321242 H        1 UNL1     0.2102
@<TRIPOS>BOND
     1     1     2    1
     2     1     6    1
     3     2     3    1
     4     3     4    1
     5     3    29    1
     6     3    33    1
     7     4     5    1
     8     5     6    1
     9     5     7    1
    10     5    35    1
    11     7     8    1
    12     8     9   ar
    13     8    13   ar
    14     9    10   ar
    15     9    36    1
    16    10    11   ar
    17    10    26    1
    18    11    12   ar
    19    11    14    1
    20    12    13   ar
    21    12    17    1
    22    13    37    1
    23    14    15    1
    24    14    25    2
    25    15    16    1
    26    15    38    1
    27    15    39    1
    28    16    17    1
    29    16    18    1
    30    16    40    1
    31    18    19   ar
    32    18    23   ar
    33    19    20   ar
    34    19    41    1
    35    20    21   ar
    36    20    42    1
    37    21    22   ar
    38    21    24    1
    39    22    23   ar
    40    22    43    1
    41    23    44    1
    42    24    45    1
    43    26    46    1
    44    27    47    1
    45    28    48    1
    46    29    49    1
    47    30    50    1
    48     1    31    1
    49     1    27    1
    50     2    32    1
    51     2    28    1
    52     4    34    1
    53     4    30    1
