@<TRIPOS>MOLECULE
*****
 50 53 0 0 0
SMALL
GASTEIGER

@<TRIPOS>ATOM
     1 C         -1.574923   -0.613136   1.38365 C.3        1 UNL1     0.1889
     2 C         -0.666284   0.46634   0.736312 C.3        1 UNL1     0.1342
     3 C         0.176952   1.276382   1.732931 C.3        1 UNL1     0.1174
     4 C         -0.544979   1.520195   3.060518 C.3        1 UNL1     0.1456
     5 C         -1.205053   0.245125   3.616272 C.3        1 UNL1     0.2326
     6 O         -2.114173   -0.289371   2.656748 O.3        1 UNL1     -0.3076
     7 O         -0.259277   -0.725134   4.101478 O.3        1 UNL1     -0.4605
     8 C         -0.793162   -1.917931   4.555054 C.ar        1 UNL1     0.1310
     9 C         -2.149995   -2.258326   4.534188 C.ar        1 UNL1     0.0226
     10 C         -2.591507   -3.501698   5.002157 C.ar        1 UNL1     0.1343
     11 C         -1.683284   -4.445034   5.480788 C.ar        1 UNL1     0.1007
     12 C         -0.330385   -4.100993   5.544711 C.ar        1 UNL1     0.1389
     13 C         0.112993   -2.84972   5.076565 C.ar        1 UNL1     0.0229
     14 C         -2.085218   -5.80482   5.909256 C.2        1 UNL1     0.1740
     15 C         -0.959635   -6.758969   6.181673 C.3        1 UNL1     0.0520
     16 C         0.147302   -6.004315   6.904961 C.3        1 UNL1     0.1322
     17 O         0.634982   -4.910607   6.096851 O.3        1 UNL1     -0.4828
     18 C         -0.20666   -5.621188   8.343935 C.ar        1 UNL1     -0.0067
     19 C         -0.331698   -6.632079   9.318962 C.ar        1 UNL1     -0.0516
     20 C         -0.700564   -6.320851   10.63313 C.ar        1 UNL1     -0.0198
     21 C         -0.953706   -5.006372   10.982258 C.ar        1 UNL1     0.1169
     22 C         -0.806414   -3.985027   10.052743 C.ar        1 UNL1     -0.0198
     23 C         -0.419621   -4.293908   8.743148 C.ar        1 UNL1     -0.0516
     24 O         -1.347463   -4.74584   12.261898 O.3        1 UNL1     -0.5068
     25 O         -3.254096   -6.177327   5.967976 O.2        1 UNL1     -0.2917
     26 O         -3.928176   -3.771349   4.955346 O.3        1 UNL1     -0.5058
     27 O         -1.005934   -1.912705   1.370982 O.3        1 UNL1     -0.3648
     28 O         -1.501406   1.398567   0.024814 O.3        1 UNL1     -0.3841
     29 O         1.466322   0.684625   1.904635 O.3        1 UNL1     -0.3863
     30 O         -1.564769   2.524466   2.867748 O.3        1 UNL1     -0.3829
     31 H         -2.46072   -0.700364   0.745031 H        1 UNL1     0.0937
     32 H         0.0   0.0   0.0 H        1 UNL1     0.0671
     33 H         0.365796   2.263318   1.287941 H        1 UNL1     0.0649
     34 H         0.158414   1.915751   3.801581 H        1 UNL1     0.0683
     35 H         -1.807018   0.605112   4.460029 H        1 UNL1     0.1085
     36 H         -2.899106   -1.59071   4.122798 H        1 UNL1     0.0691
     37 H         1.17136   -2.605714   5.138314 H        1 UNL1     0.0691
     38 H         -0.610648   -7.143425   5.217344 H        1 UNL1     0.0385
     39 H         -1.338206   -7.602243   6.769339 H        1 UNL1     0.0385
     40 H         1.003604   -6.68719   6.98832 H        1 UNL1     0.0789
     41 H         -0.147335   -7.672549   9.067798 H        1 UNL1     0.0623
     42 H         -0.805207   -7.110634   11.372931 H        1 UNL1     0.0654
     43 H         -0.98753   -2.950589   10.319286 H        1 UNL1     0.0654
     44 H         -0.303968   -3.469848   8.045727 H        1 UNL1     0.0623
     45 H         -2.066671   -5.356263   12.491773 H        1 UNL1     0.2921
     46 H         -4.071601   -4.721122   5.092364 H        1 UNL1     0.2922
     47 H         -0.723805   -2.145965   0.475519 H        1 UNL1     0.2126
     48 H         -1.822863   0.934381   -0.77201 H        1 UNL1     0.2101
     49 H         1.719805   0.71169   2.841015 H        1 UNL1     0.2100
     50 H         -1.204541   3.208301   2.265819 H        1 UNL1     0.2102
@<TRIPOS>BOND
     1     1     2    1
     2     1     6    1
     3     2     3    1
     4     3     4    1
     5     3    29    1
     6     3    33    1
     7     4     5    1
     8     5     6    1
     9     5     7    1
    10     5    35    1
    11     7     8    1
    12     8     9   ar
    13     8    13   ar
    14     9    10   ar
    15     9    36    1
    16    10    11   ar
    17    10    26    1
    18    11    12   ar
    19    11    14    1
    20    12    13   ar
    21    12    17    1
    22    13    37    1
    23    14    15    1
    24    14    25    2
    25    15    16    1
    26    15    38    1
    27    15    39    1
    28    16    17    1
    29    16    18    1
    30    16    40    1
    31    18    19   ar
    32    18    23   ar
    33    19    20   ar
    34    19    41    1
    35    20    21   ar
    36    20    42    1
    37    21    22   ar
    38    21    24    1
    39    22    23   ar
    40    22    43    1
    41    23    44    1
    42    24    45    1
    43    26    46    1
    44    27    47    1
    45    28    48    1
    46    29    49    1
    47    30    50    1
    48     1    31    1
    49     1    27    1
    50     2    32    1
    51     2    28    1
    52     4    34    1
    53     4    30    1
