@<TRIPOS>MOLECULE
*****
 50 53 0 0 0
SMALL
GASTEIGER

@<TRIPOS>ATOM
     1 C         -0.33025   -1.327578   1.702726 C.3        1 UNL1     0.1889
     2 C         -0.461706   -0.975594   0.196483 C.3        1 UNL1     0.1342
     3 C         -1.902815   -0.964318   -0.336006 C.3        1 UNL1     0.1174
     4 C         -2.788081   -2.023795   0.325001 C.3        1 UNL1     0.1456
     5 C         -2.635685   -2.048158   1.856845 C.3        1 UNL1     0.2326
     6 O         -1.27047   -2.265126   2.206102 O.3        1 UNL1     -0.3076
     7 O         -3.211051   -0.901123   2.508446 O.3        1 UNL1     -0.4605
     8 C         -3.7198   -1.116152   3.776698 C.ar        1 UNL1     0.1310
     9 C         -4.535075   -2.189527   4.151522 C.ar        1 UNL1     0.0226
     10 C         -4.987098   -2.329412   5.4691 C.ar        1 UNL1     0.1343
     11 C         -4.614878   -1.411335   6.450133 C.ar        1 UNL1     0.1007
     12 C         -3.834815   -0.312885   6.079061 C.ar        1 UNL1     0.1389
     13 C         -3.382616   -0.171022   4.75361 C.ar        1 UNL1     0.0229
     14 C         -4.994526   -1.556542   7.87454 C.2        1 UNL1     0.1740
     15 C         -4.32573   -0.607161   8.82477 C.3        1 UNL1     0.0520
     16 C         -4.257928   0.764448   8.167465 C.3        1 UNL1     0.1322
     17 O         -3.500082   0.707398   6.938854 O.3        1 UNL1     -0.4828
     18 C         -5.617799   1.455716   8.04247 C.ar        1 UNL1     -0.0067
     19 C         -5.998119   2.017437   6.806331 C.ar        1 UNL1     -0.0516
     20 C         -7.214011   2.69792   6.670274 C.ar        1 UNL1     -0.0198
     21 C         -8.053118   2.829584   7.762241 C.ar        1 UNL1     0.1169
     22 C         -7.721585   2.258428   8.984004 C.ar        1 UNL1     -0.0198
     23 C         -6.514226   1.561985   9.115559 C.ar        1 UNL1     -0.0516
     24 O         -9.211472   3.53157   7.601511 O.3        1 UNL1     -0.5068
     25 O         -5.742359   -2.438555   8.288405 O.2        1 UNL1     -0.2917
     26 O         -5.78038   -3.398155   5.769229 O.3        1 UNL1     -0.5058
     27 O         -0.22527   -0.188807   2.542349 O.3        1 UNL1     -0.3648
     28 O         0.269083   -1.953981   -0.56602 O.3        1 UNL1     -0.3841
     29 O         -2.461076   0.348978   -0.260312 O.3        1 UNL1     -0.3863
     30 O         -2.439943   -3.324661   -0.196763 O.3        1 UNL1     -0.3829
     31 H         0.63081   -1.839747   1.821575 H        1 UNL1     0.0937
     32 H         0.0   0.0   0.0 H        1 UNL1     0.0671
     33 H         -1.866183   -1.204451   -1.407787 H        1 UNL1     0.0649
     34 H         -3.838448   -1.846291   0.068833 H        1 UNL1     0.0683
     35 H         -3.189662   -2.944212   2.163564 H        1 UNL1     0.1085
     36 H         -4.813369   -2.966896   3.448407 H        1 UNL1     0.0691
     37 H         -2.777419   0.693715   4.490058 H        1 UNL1     0.0691
     38 H         -3.322947   -0.996382   9.030828 H        1 UNL1     0.0385
     39 H         -4.885299   -0.587939   9.7662 H        1 UNL1     0.0385
     40 H         -3.663079   1.410518   8.827214 H        1 UNL1     0.0789
     41 H         -5.352844   1.935644   5.936514 H        1 UNL1     0.0623
     42 H         -7.490577   3.136959   5.714885 H        1 UNL1     0.0654
     43 H         -8.378272   2.342583   9.84167 H        1 UNL1     0.0654
     44 H         -6.292083   1.119431   10.081811 H        1 UNL1     0.0623
     45 H         -8.986324   4.439124   7.340035 H        1 UNL1     0.2921
     46 H         -5.375643   -3.909923   6.487346 H        1 UNL1     0.2922
     47 H         0.517205   0.36526   2.263781 H        1 UNL1     0.2126
     48 H         1.2021   -1.887381   -0.285351 H        1 UNL1     0.2101
     49 H         -2.022916   0.931267   -0.901209 H        1 UNL1     0.2100
     50 H         -2.673666   -3.340408   -1.147992 H        1 UNL1     0.2102
@<TRIPOS>BOND
     1     1     2    1
     2     1     6    1
     3     2     3    1
     4     3     4    1
     5     3    29    1
     6     3    33    1
     7     4     5    1
     8     5     6    1
     9     5     7    1
    10     5    35    1
    11     7     8    1
    12     8     9   ar
    13     8    13   ar
    14     9    10   ar
    15     9    36    1
    16    10    11   ar
    17    10    26    1
    18    11    12   ar
    19    11    14    1
    20    12    13   ar
    21    12    17    1
    22    13    37    1
    23    14    15    1
    24    14    25    2
    25    15    16    1
    26    15    38    1
    27    15    39    1
    28    16    17    1
    29    16    18    1
    30    16    40    1
    31    18    19   ar
    32    18    23   ar
    33    19    20   ar
    34    19    41    1
    35    20    21   ar
    36    20    42    1
    37    21    22   ar
    38    21    24    1
    39    22    23   ar
    40    22    43    1
    41    23    44    1
    42    24    45    1
    43    26    46    1
    44    27    47    1
    45    28    48    1
    46    29    49    1
    47    30    50    1
    48     1    31    1
    49     1    27    1
    50     2    32    1
    51     2    28    1
    52     4    34    1
    53     4    30    1
