@<TRIPOS>MOLECULE
*****
 50 53 0 0 0
SMALL
GASTEIGER

@<TRIPOS>ATOM
     1 C         -0.283295   -1.479415   1.581733 C.3        1 UNL1     0.1889
     2 C         -0.470228   -0.983576   0.122576 C.3        1 UNL1     0.1342
     3 C         -1.931539   -0.902116   -0.344756 C.3        1 UNL1     0.1174
     4 C         -2.807326   -2.007797   0.249873 C.3        1 UNL1     0.1456
     5 C         -2.592703   -2.180265   1.764652 C.3        1 UNL1     0.2326
     6 O         -1.218313   -2.447953   2.033472 O.3        1 UNL1     -0.3076
     7 O         -3.120752   -1.092983   2.545871 O.3        1 UNL1     -0.4605
     8 C         -3.591596   -1.423176   3.803968 C.ar        1 UNL1     0.1310
     9 C         -4.648926   -2.30014   4.069087 C.ar        1 UNL1     0.0226
     10 C         -5.041515   -2.584336   5.382483 C.ar        1 UNL1     0.1343
     11 C         -4.370147   -2.016291   6.464348 C.ar        1 UNL1     0.1007
     12 C         -3.339377   -1.107262   6.211441 C.ar        1 UNL1     0.1389
     13 C         -2.946545   -0.819633   4.89069 C.ar        1 UNL1     0.0229
     14 C         -4.688375   -2.346268   7.872893 C.2        1 UNL1     0.1740
     15 C         -3.725846   -1.819683   8.896512 C.3        1 UNL1     0.0520
     16 C         -3.319266   -0.408627   8.494553 C.3        1 UNL1     0.1322
     17 O         -2.682863   -0.408173   7.197611 O.3        1 UNL1     -0.4828
     18 C         -4.438323   0.623612   8.652413 C.ar        1 UNL1     -0.0067
     19 C         -4.143443   1.9938   8.497994 C.ar        1 UNL1     -0.0516
     20 C         -5.133061   2.966757   8.682308 C.ar        1 UNL1     -0.0198
     21 C         -6.416738   2.583688   9.02765 C.ar        1 UNL1     0.1169
     22 C         -6.745852   1.240358   9.154097 C.ar        1 UNL1     -0.0198
     23 C         -5.760852   0.266249   8.95175 C.ar        1 UNL1     -0.0516
     24 O         -7.344856   3.561224   9.23602 O.3        1 UNL1     -0.5068
     25 O         -5.62549   -3.068277   8.203049 O.2        1 UNL1     -0.2917
     26 O         -6.080988   -3.447353   5.572962 O.3        1 UNL1     -0.5058
     27 O         -0.124109   -0.427473   2.520277 O.3        1 UNL1     -0.3648
     28 O         0.211489   -1.894508   -0.759565 O.3        1 UNL1     -0.3841
     29 O         -2.46321   0.405373   -0.1213 O.3        1 UNL1     -0.3863
     30 O         -2.503641   -3.257518   -0.407137 O.3        1 UNL1     -0.3829
     31 H         0.67274   -2.013497   1.610582 H        1 UNL1     0.0937
     32 H         0.0   0.0   0.0 H        1 UNL1     0.0671
     33 H         -1.943079   -1.03936   -1.435054 H        1 UNL1     0.0649
     34 H         -3.864053   -1.792516   0.056526 H        1 UNL1     0.0683
     35 H         -3.149201   -3.093945   2.008325 H        1 UNL1     0.1085
     36 H         -5.174331   -2.816881   3.273443 H        1 UNL1     0.0691
     37 H         -2.141888   -0.10755   4.720516 H        1 UNL1     0.0691
     38 H         -2.860251   -2.4905   8.913143 H        1 UNL1     0.0385
     39 H         -4.200042   -1.848646   9.883466 H        1 UNL1     0.0385
     40 H         -2.52951   -0.08938   9.188013 H        1 UNL1     0.0789
     41 H         -3.141315   2.320711   8.236233 H        1 UNL1     0.0623
     42 H         -4.89037   4.020776   8.572047 H        1 UNL1     0.0654
     43 H         -7.751586   0.9286   9.409469 H        1 UNL1     0.0654
     44 H         -6.055717   -0.774215   9.048356 H        1 UNL1     0.0623
     45 H         -6.878485   4.393562   9.416099 H        1 UNL1     0.2921
     46 H         -5.856442   -4.073347   6.279449 H        1 UNL1     0.2922
     47 H         -0.986988   -0.137415   2.847638 H        1 UNL1     0.2126
     48 H         -0.376907   -2.034326   -1.526359 H        1 UNL1     0.2101
     49 H         -2.976732   0.416526   0.702086 H        1 UNL1     0.2100
     50 H         -2.944821   -3.253312   -1.281812 H        1 UNL1     0.2102
@<TRIPOS>BOND
     1     1     2    1
     2     1     6    1
     3     2     3    1
     4     3     4    1
     5     3    29    1
     6     3    33    1
     7     4     5    1
     8     5     6    1
     9     5     7    1
    10     5    35    1
    11     7     8    1
    12     8     9   ar
    13     8    13   ar
    14     9    10   ar
    15     9    36    1
    16    10    11   ar
    17    10    26    1
    18    11    12   ar
    19    11    14    1
    20    12    13   ar
    21    12    17    1
    22    13    37    1
    23    14    15    1
    24    14    25    2
    25    15    16    1
    26    15    38    1
    27    15    39    1
    28    16    17    1
    29    16    18    1
    30    16    40    1
    31    18    19   ar
    32    18    23   ar
    33    19    20   ar
    34    19    41    1
    35    20    21   ar
    36    20    42    1
    37    21    22   ar
    38    21    24    1
    39    22    23   ar
    40    22    43    1
    41    23    44    1
    42    24    45    1
    43    26    46    1
    44    27    47    1
    45    28    48    1
    46    29    49    1
    47    30    50    1
    48     1    31    1
    49     1    27    1
    50     2    32    1
    51     2    28    1
    52     4    34    1
    53     4    30    1
