@<TRIPOS>MOLECULE
*****
 50 53 0 0 0
SMALL
GASTEIGER

@<TRIPOS>ATOM
     1 C         -0.350181   -1.33841   1.690218 C.3        1 UNL1     0.1889
     2 C         -0.471509   -0.972889   0.186352 C.3        1 UNL1     0.1342
     3 C         -1.91   -0.944006   -0.352514 C.3        1 UNL1     0.1174
     4 C         -2.807942   -2.000691   0.29574 C.3        1 UNL1     0.1456
     5 C         -2.662795   -2.039018   1.828002 C.3        1 UNL1     0.2326
     6 O         -1.301236   -2.271377   2.181606 O.3        1 UNL1     -0.3076
     7 O         -3.230619   -0.892127   2.486439 O.3        1 UNL1     -0.4605
     8 C         -3.757733   -1.115352   3.745744 C.ar        1 UNL1     0.1310
     9 C         -4.591914   -2.181938   4.097646 C.ar        1 UNL1     0.0226
     10 C         -5.061904   -2.331393   5.407866 C.ar        1 UNL1     0.1343
     11 C         -4.689422   -1.43025   6.40438 C.ar        1 UNL1     0.1007
     12 C         -3.890154   -0.33816   6.056107 C.ar        1 UNL1     0.1389
     13 C         -3.419866   -0.186637   4.738041 C.ar        1 UNL1     0.0229
     14 C         -5.088431   -1.587287   7.822225 C.2        1 UNL1     0.1740
     15 C         -4.418622   -0.658514   8.791908 C.3        1 UNL1     0.0520
     16 C         -4.324311   0.719801   8.152134 C.3        1 UNL1     0.1322
     17 O         -3.55229   0.667129   6.932183 O.3        1 UNL1     -0.4828
     18 C         -5.67312   1.43095   8.019074 C.ar        1 UNL1     -0.0067
     19 C         -6.023067   2.027884   6.790489 C.ar        1 UNL1     -0.0516
     20 C         -7.227855   2.726721   6.648796 C.ar        1 UNL1     -0.0198
     21 C         -8.085918   2.841767   7.727832 C.ar        1 UNL1     0.1169
     22 C         -7.784586   2.23637   8.940899 C.ar        1 UNL1     -0.0198
     23 C         -6.588436   1.521798   9.077533 C.ar        1 UNL1     -0.0516
     24 O         -9.232453   3.56199   7.563092 O.3        1 UNL1     -0.5068
     25 O         -5.853086   -2.463926   8.216297 O.2        1 UNL1     -0.2917
     26 O         -5.873119   -3.392753   5.685406 O.3        1 UNL1     -0.5058
     27 O         -0.238632   -0.207577   2.539665 O.3        1 UNL1     -0.3648
     28 O         0.253782   -1.951662   -0.580892 O.3        1 UNL1     -0.3841
     29 O         -2.456562   0.373699   -0.268512 O.3        1 UNL1     -0.3863
     30 O         -2.469336   -3.300377   -0.235156 O.3        1 UNL1     -0.3829
     31 H         0.605598   -1.860344   1.80917 H        1 UNL1     0.0937
     32 H         0.0   0.0   0.0 H        1 UNL1     0.0671
     33 H         -1.870658   -1.175667   -1.426063 H        1 UNL1     0.0649
     34 H         -3.855457   -1.811449   0.036315 H        1 UNL1     0.0683
     35 H         -3.226347   -2.932429   2.124825 H        1 UNL1     0.1085
     36 H         -4.872001   -2.946993   3.38185 H        1 UNL1     0.0691
     37 H         -2.799899   0.672874   4.492326 H        1 UNL1     0.0691
     38 H         -3.423771   -1.063775   9.005357 H        1 UNL1     0.0385
     39 H         -4.989386   -0.64293   9.726662 H        1 UNL1     0.0385
     40 H         -3.728957   1.34979   8.82681 H        1 UNL1     0.0789
     41 H         -5.362408   1.959609   5.931118 H        1 UNL1     0.0623
     42 H         -7.480892   3.192756   5.699693 H        1 UNL1     0.0654
     43 H         -8.456394   2.30745   9.787971 H        1 UNL1     0.0654
     44 H         -6.390057   1.052662   10.036388 H        1 UNL1     0.0623
     45 H         -8.991335   4.474907   7.336903 H        1 UNL1     0.2921
     46 H         -5.484835   -3.917749   6.40306 H        1 UNL1     0.2922
     47 H         0.497427   0.352641   2.25641 H        1 UNL1     0.2126
     48 H         1.192796   -1.866732   -0.326389 H        1 UNL1     0.2101
     49 H         -2.016001   0.955131   -0.908541 H        1 UNL1     0.2100
     50 H         -2.704073   -3.308066   -1.186235 H        1 UNL1     0.2102
@<TRIPOS>BOND
     1     1     2    1
     2     1     6    1
     3     2     3    1
     4     3     4    1
     5     3    29    1
     6     3    33    1
     7     4     5    1
     8     5     6    1
     9     5     7    1
    10     5    35    1
    11     7     8    1
    12     8     9   ar
    13     8    13   ar
    14     9    10   ar
    15     9    36    1
    16    10    11   ar
    17    10    26    1
    18    11    12   ar
    19    11    14    1
    20    12    13   ar
    21    12    17    1
    22    13    37    1
    23    14    15    1
    24    14    25    2
    25    15    16    1
    26    15    38    1
    27    15    39    1
    28    16    17    1
    29    16    18    1
    30    16    40    1
    31    18    19   ar
    32    18    23   ar
    33    19    20   ar
    34    19    41    1
    35    20    21   ar
    36    20    42    1
    37    21    22   ar
    38    21    24    1
    39    22    23   ar
    40    22    43    1
    41    23    44    1
    42    24    45    1
    43    26    46    1
    44    27    47    1
    45    28    48    1
    46    29    49    1
    47    30    50    1
    48     1    31    1
    49     1    27    1
    50     2    32    1
    51     2    28    1
    52     4    34    1
    53     4    30    1
