@<TRIPOS>MOLECULE
*****
 50 53 0 0 0
SMALL
GASTEIGER

@<TRIPOS>ATOM
     1 C         0.351869   -0.663144   2.051154 C.3        1 UNL1     0.1889
     2 C         0.022521   -0.943028   0.560136 C.3        1 UNL1     0.1342
     3 C         -1.295316   -1.697046   0.325125 C.3        1 UNL1     0.1174
     4 C         -1.598452   -2.718955   1.423728 C.3        1 UNL1     0.1456
     5 C         -1.393549   -2.144218   2.837254 C.3        1 UNL1     0.2326
     6 O         -0.060145   -1.65878   2.976005 O.3        1 UNL1     -0.3076
     7 O         -2.39013   -1.176013   3.212388 O.3        1 UNL1     -0.4605
     8 C         -2.712895   -1.127961   4.556651 C.ar        1 UNL1     0.1310
     9 C         -2.965896   -2.238195   5.369468 C.ar        1 UNL1     0.0226
     10 C         -3.26882   -2.086679   6.727843 C.ar        1 UNL1     0.1343
     11 C         -3.302719   -0.821335   7.312307 C.ar        1 UNL1     0.1007
     12 C         -3.092199   0.297419   6.501841 C.ar        1 UNL1     0.1389
     13 C         -2.790234   0.144957   5.135458 C.ar        1 UNL1     0.0229
     14 C         -3.534781   -0.608814   8.759765 C.2        1 UNL1     0.1740
     15 C         -3.316608   0.791204   9.253627 C.3        1 UNL1     0.0520
     16 C         -3.875015   1.759306   8.219742 C.3        1 UNL1     0.1322
     17 O         -3.208301   1.59314   6.948935 O.3        1 UNL1     -0.4828
     18 C         -5.403473   1.76033   8.138868 C.ar        1 UNL1     -0.0067
     19 C         -6.030338   1.680301   6.878372 C.ar        1 UNL1     -0.0516
     20 C         -7.425001   1.726523   6.76549 C.ar        1 UNL1     -0.0198
     21 C         -8.201871   1.859701   7.9024 C.ar        1 UNL1     0.1169
     22 C         -7.615206   1.907278   9.160335 C.ar        1 UNL1     -0.0198
     23 C         -6.221388   1.842504   9.274938 C.ar        1 UNL1     -0.0516
     24 O         -9.554987   1.939372   7.750314 O.3        1 UNL1     -0.5068
     25 O         -3.809317   -1.516017   9.540853 O.2        1 UNL1     -0.2917
     26 O         -3.506477   -3.209759   7.465267 O.3        1 UNL1     -0.5058
     27 O         -0.023645   0.63644   2.478773 O.3        1 UNL1     -0.3648
     28 O         1.080157   -1.74473   0.002116 O.3        1 UNL1     -0.3841
     29 O         -2.371327   -0.782005   0.108256 O.3        1 UNL1     -0.3863
     30 O         -0.733157   -3.863298   1.258101 O.3        1 UNL1     -0.3829
     31 H         1.443962   -0.670187   2.136948 H        1 UNL1     0.0937
     32 H         -0.0   0.0   0.0 H        1 UNL1     0.0671
     33 H         -1.196966   -2.259583   -0.61381 H        1 UNL1     0.0649
     34 H         -2.628528   -3.079109   1.325573 H        1 UNL1     0.0683
     35 H         -1.484681   -3.018419   3.494024 H        1 UNL1     0.1085
     36 H         -2.899903   -3.251172   4.987837 H        1 UNL1     0.0691
     37 H         -2.631581   1.031905   4.52583 H        1 UNL1     0.0691
     38 H         -2.238386   0.931918   9.384638 H        1 UNL1     0.0385
     39 H         -3.797794   0.906159   10.23088 H        1 UNL1     0.0385
     40 H         -3.600467   2.772408   8.54342 H        1 UNL1     0.0789
     41 H         -5.442386   1.584609   5.970184 H        1 UNL1     0.0623
     42 H         -7.89601   1.675855   5.786922 H        1 UNL1     0.0654
     43 H         -8.214838   1.99639   10.058338 H        1 UNL1     0.0654
     44 H         -5.797423   1.8718   10.274058 H        1 UNL1     0.0623
     45 H         -9.759243   2.736189   7.234486 H        1 UNL1     0.2921
     46 H         -2.897029   -3.236341   8.219773 H        1 UNL1     0.2922
     47 H         0.371517   1.305675   1.902725 H        1 UNL1     0.2126
     48 H         1.890162   -1.200069   0.033241 H        1 UNL1     0.2101
     49 H         -2.263066   -0.342804   -0.750333 H        1 UNL1     0.2100
     50 H         -0.975373   -4.305381   0.418097 H        1 UNL1     0.2102
@<TRIPOS>BOND
     1     1     2    1
     2     1     6    1
     3     2     3    1
     4     3     4    1
     5     3    29    1
     6     3    33    1
     7     4     5    1
     8     5     6    1
     9     5     7    1
    10     5    35    1
    11     7     8    1
    12     8     9   ar
    13     8    13   ar
    14     9    10   ar
    15     9    36    1
    16    10    11   ar
    17    10    26    1
    18    11    12   ar
    19    11    14    1
    20    12    13   ar
    21    12    17    1
    22    13    37    1
    23    14    15    1
    24    14    25    2
    25    15    16    1
    26    15    38    1
    27    15    39    1
    28    16    17    1
    29    16    18    1
    30    16    40    1
    31    18    19   ar
    32    18    23   ar
    33    19    20   ar
    34    19    41    1
    35    20    21   ar
    36    20    42    1
    37    21    22   ar
    38    21    24    1
    39    22    23   ar
    40    22    43    1
    41    23    44    1
    42    24    45    1
    43    26    46    1
    44    27    47    1
    45    28    48    1
    46    29    49    1
    47    30    50    1
    48     1    31    1
    49     1    27    1
    50     2    32    1
    51     2    28    1
    52     4    34    1
    53     4    30    1
