@<TRIPOS>MOLECULE
*****
 50 53 0 0 0
SMALL
GASTEIGER

@<TRIPOS>ATOM
     1 C         0.445416   0.218334   -2.127143 C.3        1 UNL1     0.1889
     2 C         -0.198509   0.717573   -0.805757 C.3        1 UNL1     0.1342
     3 C         -1.711097   0.974497   -0.886574 C.3        1 UNL1     0.1174
     4 C         -2.149721   1.512044   -2.251041 C.3        1 UNL1     0.1456
     5 C         -1.536773   0.721758   -3.421557 C.3        1 UNL1     0.2326
     6 O         -0.114305   0.735542   -3.32531 O.3        1 UNL1     -0.3076
     7 O         -2.081307   -0.602546   -3.566549 O.3        1 UNL1     -0.4605
     8 C         -3.457296   -0.682732   -3.683814 C.ar        1 UNL1     0.1310
     9 C         -4.265301   -1.66034   -3.093296 C.ar        1 UNL1     0.0226
     10 C         -5.655519   -1.646283   -3.257609 C.ar        1 UNL1     0.1343
     11 C         -6.274257   -0.639547   -3.997533 C.ar        1 UNL1     0.1007
     12 C         -5.474447   0.31865   -4.625981 C.ar        1 UNL1     0.1389
     13 C         -4.076395   0.302775   -4.462795 C.ar        1 UNL1     0.0229
     14 C         -7.745043   -0.528491   -4.133941 C.2        1 UNL1     0.1740
     15 C         -8.244353   0.734036   -4.772897 C.3        1 UNL1     0.0520
     16 C         -7.320886   1.085689   -5.93113 C.3        1 UNL1     0.1322
     17 O         -5.968816   1.290118   -5.465098 O.3        1 UNL1     -0.4828
     18 C         -7.443321   0.137659   -7.126527 C.ar        1 UNL1     -0.0067
     19 C         -8.694645   -0.437694   -7.428803 C.ar        1 UNL1     -0.0516
     20 C         -8.831374   -1.345374   -8.485867 C.ar        1 UNL1     -0.0198
     21 C         -7.72541   -1.690703   -9.24179 C.ar        1 UNL1     0.1169
     22 C         -6.486711   -1.115463   -8.989679 C.ar        1 UNL1     -0.0198
     23 C         -6.353487   -0.193722   -7.944355 C.ar        1 UNL1     -0.0516
     24 O         -7.889314   -2.606662   -10.239064 O.3        1 UNL1     -0.5068
     25 O         -8.530107   -1.362109   -3.689824 O.2        1 UNL1     -0.2917
     26 O         -6.386436   -2.629058   -2.656361 O.3        1 UNL1     -0.5058
     27 O         0.596222   -1.191156   -2.185315 O.3        1 UNL1     -0.3648
     28 O         0.427691   1.959486   -0.433961 O.3        1 UNL1     -0.3841
     29 O         -2.444436   -0.185029   -0.486768 O.3        1 UNL1     -0.3863
     30 O         -1.750928   2.895337   -2.365731 O.3        1 UNL1     -0.3829
     31 H         1.472168   0.600078   -2.13854 H        1 UNL1     0.0937
     32 H         0.0   0.0   0.0 H        1 UNL1     0.0671
     33 H         -1.960084   1.747015   -0.145668 H        1 UNL1     0.0649
     34 H         -3.242205   1.485822   -2.329732 H        1 UNL1     0.0683
     35 H         -1.802263   1.312408   -4.307292 H        1 UNL1     0.1085
     36 H         -3.850289   -2.437065   -2.460379 H        1 UNL1     0.0691
     37 H         -3.476006   1.059334   -4.963438 H        1 UNL1     0.0691
     38 H         -8.235193   1.518199   -4.00835 H        1 UNL1     0.0385
     39 H         -9.279565   0.586237   -5.09889 H        1 UNL1     0.0385
     40 H         -7.633356   2.069308   -6.30713 H        1 UNL1     0.0789
     41 H         -9.576115   -0.189911   -6.844624 H        1 UNL1     0.0623
     42 H         -9.799188   -1.791302   -8.701494 H        1 UNL1     0.0654
     43 H         -5.617188   -1.367374   -9.584979 H        1 UNL1     0.0654
     44 H         -5.373232   0.244101   -7.782317 H        1 UNL1     0.0623
     45 H         -8.427144   -2.20397   -10.939989 H        1 UNL1     0.2921
     46 H         -7.109617   -2.899766   -3.243846 H        1 UNL1     0.2922
     47 H         0.880597   -1.46124   -3.069648 H        1 UNL1     0.2126
     48 H         0.200906   2.606321   -1.129594 H        1 UNL1     0.2101
     49 H         -3.136808   -0.378623   -1.138639 H        1 UNL1     0.2100
     50 H         -1.257697   2.998266   -3.205874 H        1 UNL1     0.2102
@<TRIPOS>BOND
     1     1     2    1
     2     1     6    1
     3     2     3    1
     4     3     4    1
     5     3    29    1
     6     3    33    1
     7     4     5    1
     8     5     6    1
     9     5     7    1
    10     5    35    1
    11     7     8    1
    12     8     9   ar
    13     8    13   ar
    14     9    10   ar
    15     9    36    1
    16    10    11   ar
    17    10    26    1
    18    11    12   ar
    19    11    14    1
    20    12    13   ar
    21    12    17    1
    22    13    37    1
    23    14    15    1
    24    14    25    2
    25    15    16    1
    26    15    38    1
    27    15    39    1
    28    16    17    1
    29    16    18    1
    30    16    40    1
    31    18    19   ar
    32    18    23   ar
    33    19    20   ar
    34    19    41    1
    35    20    21   ar
    36    20    42    1
    37    21    22   ar
    38    21    24    1
    39    22    23   ar
    40    22    43    1
    41    23    44    1
    42    24    45    1
    43    26    46    1
    44    27    47    1
    45    28    48    1
    46    29    49    1
    47    30    50    1
    48     1    31    1
    49     1    27    1
    50     2    32    1
    51     2    28    1
    52     4    34    1
    53     4    30    1
