@<TRIPOS>MOLECULE
*****
 50 53 0 0 0
SMALL
GASTEIGER

@<TRIPOS>ATOM
     1 C         -0.404481   -1.3593   1.661175 C.3        1 UNL1     0.1889
     2 C         -0.500131   -0.962677   0.163349 C.3        1 UNL1     0.1342
     3 C         -1.931636   -0.883752   -0.388946 C.3        1 UNL1     0.1174
     4 C         -2.865097   -1.926883   0.230444 C.3        1 UNL1     0.1456
     5 C         -2.736883   -1.997686   1.76306 C.3        1 UNL1     0.2326
     6 O         -1.385992   -2.274391   2.125546 O.3        1 UNL1     -0.3076
     7 O         -3.279538   -0.847856   2.437403 O.3        1 UNL1     -0.4605
     8 C         -3.814962   -1.077571   3.692027 C.ar        1 UNL1     0.1310
     9 C         -4.674669   -2.129559   4.025981 C.ar        1 UNL1     0.0226
     10 C         -5.151398   -2.287626   5.33275 C.ar        1 UNL1     0.1343
     11 C         -4.760602   -1.410454   6.343537 C.ar        1 UNL1     0.1007
     12 C         -3.935215   -0.332212   6.013519 C.ar        1 UNL1     0.1389
     13 C         -3.458119   -0.171966   4.698935 C.ar        1 UNL1     0.0229
     14 C         -5.166825   -1.57937   7.757964 C.2        1 UNL1     0.1740
     15 C         -4.478072   -0.681113   8.743003 C.3        1 UNL1     0.0520
     16 C         -4.350026   0.70406   8.124247 C.3        1 UNL1     0.1322
     17 O         -3.576292   0.65168   6.90537 O.3        1 UNL1     -0.4828
     18 C         -5.681555   1.448397   7.998885 C.ar        1 UNL1     -0.0067
     19 C         -6.022258   2.056577   6.773221 C.ar        1 UNL1     -0.0516
     20 C         -7.210151   2.785092   6.638544 C.ar        1 UNL1     -0.0198
     21 C         -8.060277   2.918665   7.721721 C.ar        1 UNL1     0.1169
     22 C         -7.768452   2.303254   8.93207 C.ar        1 UNL1     -0.0198
     23 C         -6.589603   1.559231   9.061693 C.ar        1 UNL1     -0.0516
     24 O         -9.189514   3.667183   7.56378 O.3        1 UNL1     -0.5068
     25 O         -5.952709   -2.443738   8.137094 O.2        1 UNL1     -0.2917
     26 O         -5.987831   -3.333812   5.59248 O.3        1 UNL1     -0.5058
     27 O         -0.270473   -0.247982   2.532841 O.3        1 UNL1     -0.3648
     28 O         0.205693   -1.946847   -0.615064 O.3        1 UNL1     -0.3841
     29 O         -2.442387   0.446873   -0.285479 O.3        1 UNL1     -0.3863
     30 O         -2.557102   -3.225409   -0.321514 O.3        1 UNL1     -0.3829
     31 H         0.53522   -1.909762   1.779627 H        1 UNL1     0.0937
     32 H         0.0   0.0   0.0 H        1 UNL1     0.0671
     33 H         -1.88764   -1.09644   -1.466233 H        1 UNL1     0.0649
     34 H         -3.904246   -1.703764   -0.03562 H        1 UNL1     0.0683
     35 H         -3.327959   -2.880419   2.037452 H        1 UNL1     0.1085
     36 H         -4.97065   -2.877057   3.298133 H        1 UNL1     0.0691
     37 H         -2.817666   0.676433   4.467563 H        1 UNL1     0.0691
     38 H         -3.493485   -1.112627   8.952555 H        1 UNL1     0.0385
     39 H         -5.050732   -0.666228   9.676608 H        1 UNL1     0.0385
     40 H         -3.741905   1.309806   8.809652 H        1 UNL1     0.0789
     41 H         -5.36734   1.974097   5.910707 H        1 UNL1     0.0623
     42 H         -7.455932   3.259388   5.69163 H        1 UNL1     0.0654
     43 H         -8.434502   2.388839   9.782342 H        1 UNL1     0.0654
     44 H         -6.398496   1.083153   10.018601 H        1 UNL1     0.0623
     45 H         -8.927288   4.572229   7.329591 H        1 UNL1     0.2921
     46 H         -5.612893   -3.879391   6.30183 H        1 UNL1     0.2922
     47 H         0.496071   0.285282   2.28006 H        1 UNL1     0.2126
     48 H         1.13603   -1.922912   -0.319036 H        1 UNL1     0.2101
     49 H         -1.973501   1.029369   -0.904056 H        1 UNL1     0.2100
     50 H         -2.776833   -3.207125   -1.276028 H        1 UNL1     0.2102
@<TRIPOS>BOND
     1     1     2    1
     2     1     6    1
     3     2     3    1
     4     3     4    1
     5     3    29    1
     6     3    33    1
     7     4     5    1
     8     5     6    1
     9     5     7    1
    10     5    35    1
    11     7     8    1
    12     8     9   ar
    13     8    13   ar
    14     9    10   ar
    15     9    36    1
    16    10    11   ar
    17    10    26    1
    18    11    12   ar
    19    11    14    1
    20    12    13   ar
    21    12    17    1
    22    13    37    1
    23    14    15    1
    24    14    25    2
    25    15    16    1
    26    15    38    1
    27    15    39    1
    28    16    17    1
    29    16    18    1
    30    16    40    1
    31    18    19   ar
    32    18    23   ar
    33    19    20   ar
    34    19    41    1
    35    20    21   ar
    36    20    42    1
    37    21    22   ar
    38    21    24    1
    39    22    23   ar
    40    22    43    1
    41    23    44    1
    42    24    45    1
    43    26    46    1
    44    27    47    1
    45    28    48    1
    46    29    49    1
    47    30    50    1
    48     1    31    1
    49     1    27    1
    50     2    32    1
    51     2    28    1
    52     4    34    1
    53     4    30    1
