@<TRIPOS>MOLECULE
*****
 50 53 0 0 0
SMALL
GASTEIGER

@<TRIPOS>ATOM
     1 C         -0.371054   -1.397585   1.637034 C.3        1 UNL1     0.1889
     2 C         -0.487883   -0.971268   0.148899 C.3        1 UNL1     0.1342
     3 C         -1.926304   -0.896695   -0.385749 C.3        1 UNL1     0.1174
     4 C         -2.841446   -1.962543   0.2222 C.3        1 UNL1     0.1456
     5 C         -2.695163   -2.063488   1.751505 C.3        1 UNL1     0.2326
     6 O         -1.337367   -2.332761   2.093191 O.3        1 UNL1     -0.3076
     7 O         -3.242481   -0.933817   2.455498 O.3        1 UNL1     -0.4605
     8 C         -3.77185   -1.197297   3.706048 C.ar        1 UNL1     0.1310
     9 C         -5.081438   -1.619487   3.959102 C.ar        1 UNL1     0.0226
     10 C         -5.519339   -1.877598   5.263526 C.ar        1 UNL1     0.1343
     11 C         -4.650398   -1.74255   6.345442 C.ar        1 UNL1     0.1007
     12 C         -3.35229   -1.282132   6.109403 C.ar        1 UNL1     0.1389
     13 C         -2.913009   -1.020131   4.797984 C.ar        1 UNL1     0.0229
     14 C         -5.035446   -2.082283   7.734857 C.2        1 UNL1     0.1740
     15 C         -3.916743   -2.091433   8.734842 C.3        1 UNL1     0.0520
     16 C         -2.998853   -0.912658   8.441713 C.3        1 UNL1     0.1322
     17 O         -2.447999   -1.010511   7.109777 O.3        1 UNL1     -0.4828
     18 C         -3.617315   0.447405   8.774064 C.ar        1 UNL1     -0.0067
     19 C         -3.103929   1.196674   9.852602 C.ar        1 UNL1     -0.0516
     20 C         -3.676794   2.422193   10.213008 C.ar        1 UNL1     -0.0198
     21 C         -4.765556   2.904687   9.509001 C.ar        1 UNL1     0.1169
     22 C         -5.272577   2.205898   8.421131 C.ar        1 UNL1     -0.0198
     23 C         -4.688296   0.989278   8.048965 C.ar        1 UNL1     -0.0516
     24 O         -5.320671   4.083367   9.912685 O.3        1 UNL1     -0.5068
     25 O         -6.171903   -2.416853   8.058912 O.2        1 UNL1     -0.2917
     26 O         -6.809001   -2.285406   5.442548 O.3        1 UNL1     -0.5058
     27 O         -0.239147   -0.303053   2.53 O.3        1 UNL1     -0.3648
     28 O         0.219629   -1.931391   -0.657511 O.3        1 UNL1     -0.3841
     29 O         -2.450117   0.425831   -0.249082 O.3        1 UNL1     -0.3863
     30 O         -2.525779   -3.245967   -0.359923 O.3        1 UNL1     -0.3829
     31 H         0.575785   -1.940026   1.733637 H        1 UNL1     0.0937
     32 H         0.0   0.0   0.0 H        1 UNL1     0.0671
     33 H         -1.892207   -1.086653   -1.467633 H        1 UNL1     0.0649
     34 H         -3.885872   -1.745407   -0.027655 H        1 UNL1     0.0683
     35 H         -3.273584   -2.958119   2.01408 H        1 UNL1     0.1085
     36 H         -5.788503   -1.797043   3.156199 H        1 UNL1     0.0691
     37 H         -1.897972   -0.661585   4.641022 H        1 UNL1     0.0691
     38 H         -3.384518   -3.042632   8.627677 H        1 UNL1     0.0385
     39 H         -4.337907   -2.047058   9.745006 H        1 UNL1     0.0385
     40 H         -2.12918   -1.006561   9.10607 H        1 UNL1     0.0789
     41 H         -2.255759   0.835249   10.426736 H        1 UNL1     0.0623
     42 H         -3.279327   2.984881   11.054087 H        1 UNL1     0.0654
     43 H         -6.115388   2.581899   7.853501 H        1 UNL1     0.0654
     44 H         -5.10341   0.475194   7.18743 H        1 UNL1     0.0623
     45 H         -4.996212   4.790159   9.331403 H        1 UNL1     0.2921
     46 H         -6.848059   -2.924098   6.171904 H        1 UNL1     0.2922
     47 H         0.64855   -0.289563   2.914281 H        1 UNL1     0.2126
     48 H         -0.336636   -2.1019   -1.441875 H        1 UNL1     0.2101
     49 H         -2.99877   0.482603   0.549386 H        1 UNL1     0.2100
     50 H         -1.991227   -3.748286   0.289416 H        1 UNL1     0.2102
@<TRIPOS>BOND
     1     1     2    1
     2     1     6    1
     3     2     3    1
     4     3     4    1
     5     3    29    1
     6     3    33    1
     7     4     5    1
     8     5     6    1
     9     5     7    1
    10     5    35    1
    11     7     8    1
    12     8     9   ar
    13     8    13   ar
    14     9    10   ar
    15     9    36    1
    16    10    11   ar
    17    10    26    1
    18    11    12   ar
    19    11    14    1
    20    12    13   ar
    21    12    17    1
    22    13    37    1
    23    14    15    1
    24    14    25    2
    25    15    16    1
    26    15    38    1
    27    15    39    1
    28    16    17    1
    29    16    18    1
    30    16    40    1
    31    18    19   ar
    32    18    23   ar
    33    19    20   ar
    34    19    41    1
    35    20    21   ar
    36    20    42    1
    37    21    22   ar
    38    21    24    1
    39    22    23   ar
    40    22    43    1
    41    23    44    1
    42    24    45    1
    43    26    46    1
    44    27    47    1
    45    28    48    1
    46    29    49    1
    47    30    50    1
    48     1    31    1
    49     1    27    1
    50     2    32    1
    51     2    28    1
    52     4    34    1
    53     4    30    1
