@<TRIPOS>MOLECULE
*****
 50 53 0 0 0
SMALL
GASTEIGER

@<TRIPOS>ATOM
     1 C         -1.535619   -0.566327   1.446359 C.3        1 UNL1     0.1889
     2 C         -0.666585   0.493866   0.717859 C.3        1 UNL1     0.1342
     3 C         0.170629   1.385476   1.647682 C.3        1 UNL1     0.1174
     4 C         -0.53616   1.692547   2.970283 C.3        1 UNL1     0.1456
     5 C         -1.153003   0.437892   3.615037 C.3        1 UNL1     0.2326
     6 O         -2.062821   -0.17818   2.706436 O.3        1 UNL1     -0.3076
     7 O         -0.174032   -0.475869   4.142273 O.3        1 UNL1     -0.4605
     8 C         -0.510055   -1.107594   5.32614 C.ar        1 UNL1     0.1310
     9 C         -0.759728   -0.466409   6.544272 C.ar        1 UNL1     0.0226
     10 C         -1.110944   -1.194947   7.686981 C.ar        1 UNL1     0.1343
     11 C         -1.24438   -2.581728   7.633356 C.ar        1 UNL1     0.1007
     12 C         -0.95763   -3.236965   6.432847 C.ar        1 UNL1     0.1389
     13 C         -0.601929   -2.504433   5.284672 C.ar        1 UNL1     0.0229
     14 C         -1.694223   -3.392727   8.788378 C.2        1 UNL1     0.1740
     15 C         -1.996205   -4.832459   8.492524 C.3        1 UNL1     0.0520
     16 C         -0.940836   -5.358   7.529217 C.3        1 UNL1     0.1322
     17 O         -0.952189   -4.605719   6.295922 O.3        1 UNL1     -0.4828
     18 C         0.443942   -5.519878   8.160809 C.ar        1 UNL1     -0.0067
     19 C         1.462946   -6.173078   7.4375 C.ar        1 UNL1     -0.0516
     20 C         2.726447   -6.379782   8.003893 C.ar        1 UNL1     -0.0198
     21 C         2.980634   -5.945529   9.292551 C.ar        1 UNL1     0.1169
     22 C         2.007994   -5.269458   10.017629 C.ar        1 UNL1     -0.0198
     23 C         0.750237   -5.046274   9.444661 C.ar        1 UNL1     -0.0516
     24 O         4.210799   -6.198115   9.824804 O.3        1 UNL1     -0.5068
     25 O         -1.892802   -2.924999   9.906538 O.2        1 UNL1     -0.2917
     26 O         -1.340208   -0.509501   8.844213 O.3        1 UNL1     -0.5058
     27 O         -0.932457   -1.849175   1.503665 O.3        1 UNL1     -0.3648
     28 O         -1.537572   1.358487   -0.034816 O.3        1 UNL1     -0.3841
     29 O         1.477906   0.838732   1.832694 O.3        1 UNL1     -0.3863
     30 O         -1.585326   2.656476   2.734097 O.3        1 UNL1     -0.3829
     31 H         -2.428904   -0.715645   0.830061 H        1 UNL1     0.0937
     32 H         0.0   0.0   0.0 H        1 UNL1     0.0671
     33 H         0.325928   2.347439   1.13952 H        1 UNL1     0.0649
     34 H         0.168231   2.151177   3.673057 H        1 UNL1     0.0683
     35 H         -1.750741   0.833954   4.445533 H        1 UNL1     0.1085
     36 H         -0.727232   0.613591   6.637352 H        1 UNL1     0.0691
     37 H         -0.382616   -3.038349   4.36254 H        1 UNL1     0.0691
     38 H         -2.995335   -4.876308   8.046047 H        1 UNL1     0.0385
     39 H         -2.01635   -5.395364   9.431944 H        1 UNL1     0.0385
     40 H         -1.246531   -6.37132   7.23553 H        1 UNL1     0.0789
     41 H         1.28564   -6.531494   6.427672 H        1 UNL1     0.0623
     42 H         3.500187   -6.895334   7.440382 H        1 UNL1     0.0654
     43 H         2.201195   -4.911833   11.021964 H        1 UNL1     0.0654
     44 H         0.017557   -4.505387   10.035818 H        1 UNL1     0.0623
     45 H         4.617537   -6.924913   9.32576 H        1 UNL1     0.2921
     46 H         -2.252137   -0.178174   8.848728 H        1 UNL1     0.2922
     47 H         -0.378341   -1.923654   2.293139 H        1 UNL1     0.2126
     48 H         -1.206637   2.268431   0.09253 H        1 UNL1     0.2101
     49 H         1.485102   -0.09549   1.570069 H        1 UNL1     0.2100
     50 H         -2.439082   2.176179   2.722777 H        1 UNL1     0.2102
@<TRIPOS>BOND
     1     1     2    1
     2     1     6    1
     3     2     3    1
     4     3     4    1
     5     3    29    1
     6     3    33    1
     7     4     5    1
     8     5     6    1
     9     5     7    1
    10     5    35    1
    11     7     8    1
    12     8     9   ar
    13     8    13   ar
    14     9    10   ar
    15     9    36    1
    16    10    11   ar
    17    10    26    1
    18    11    12   ar
    19    11    14    1
    20    12    13   ar
    21    12    17    1
    22    13    37    1
    23    14    15    1
    24    14    25    2
    25    15    16    1
    26    15    38    1
    27    15    39    1
    28    16    17    1
    29    16    18    1
    30    16    40    1
    31    18    19   ar
    32    18    23   ar
    33    19    20   ar
    34    19    41    1
    35    20    21   ar
    36    20    42    1
    37    21    22   ar
    38    21    24    1
    39    22    23   ar
    40    22    43    1
    41    23    44    1
    42    24    45    1
    43    26    46    1
    44    27    47    1
    45    28    48    1
    46    29    49    1
    47    30    50    1
    48     1    31    1
    49     1    27    1
    50     2    32    1
    51     2    28    1
    52     4    34    1
    53     4    30    1
