@<TRIPOS>MOLECULE
*****
 50 53 0 0 0
SMALL
GASTEIGER

@<TRIPOS>ATOM
     1 C         -1.803639   -0.490445   1.130113 C.3        1 UNL1     0.1889
     2 C         -0.40716   0.175697   1.00345 C.3        1 UNL1     0.1342
     3 C         0.620217   -0.284912   2.048821 C.3        1 UNL1     0.1174
     4 C         -0.011455   -0.581393   3.411248 C.3        1 UNL1     0.1456
     5 C         -1.286641   -1.43651   3.297067 C.3        1 UNL1     0.2326
     6 O         -2.232874   -0.787571   2.450669 O.3        1 UNL1     -0.3076
     7 O         -1.029875   -2.800743   2.917253 O.3        1 UNL1     -0.4605
     8 C         -0.079939   -3.470341   3.667445 C.ar        1 UNL1     0.1310
     9 C         1.284402   -3.545417   3.367047 C.ar        1 UNL1     0.0226
     10 C         2.172174   -4.235597   4.200962 C.ar        1 UNL1     0.1343
     11 C         1.720524   -4.847918   5.369258 C.ar        1 UNL1     0.1007
     12 C         0.353753   -4.814683   5.658425 C.ar        1 UNL1     0.1389
     13 C         -0.539103   -4.122895   4.818384 C.ar        1 UNL1     0.0229
     14 C         2.627449   -5.518577   6.329392 C.2        1 UNL1     0.1740
     15 C         2.00688   -5.924086   7.634002 C.3        1 UNL1     0.0520
     16 C         0.614987   -6.474324   7.355024 C.3        1 UNL1     0.1322
     17 O         -0.214584   -5.474398   6.723335 O.3        1 UNL1     -0.4828
     18 C         0.61937   -7.83274   6.649751 C.ar        1 UNL1     -0.0067
     19 C         -0.591101   -8.540924   6.503293 C.ar        1 UNL1     -0.0516
     20 C         -0.614982   -9.80673   5.90569 C.ar        1 UNL1     -0.0198
     21 C         0.563237   -10.377082   5.458113 C.ar        1 UNL1     0.1169
     22 C         1.766119   -9.690106   5.558005 C.ar        1 UNL1     -0.0198
     23 C         1.787562   -8.416451   6.138867 C.ar        1 UNL1     -0.0516
     24 O         0.506457   -11.627311   4.9158 O.3        1 UNL1     -0.5068
     25 O         3.829444   -5.672627   6.129489 O.2        1 UNL1     -0.2917
     26 O         3.490369   -4.272205   3.850811 O.3        1 UNL1     -0.5058
     27 O         -1.983604   -1.596194   0.259643 O.3        1 UNL1     -0.3648
     28 O         -0.565015   1.598559   1.155939 O.3        1 UNL1     -0.3841
     29 O         1.397157   -1.375584   1.549892 O.3        1 UNL1     -0.3863
     30 O         -0.345028   0.664982   4.060069 O.3        1 UNL1     -0.3829
     31 H         -2.534966   0.247697   0.783146 H        1 UNL1     0.0937
     32 H         0.0   0.0   0.0 H        1 UNL1     0.0671
     33 H         1.334417   0.536247   2.201586 H        1 UNL1     0.0649
     34 H         0.711575   -1.094421   4.055011 H        1 UNL1     0.0683
     35 H         -1.704968   -1.42437   4.311333 H        1 UNL1     0.1085
     36 H         1.706592   -3.043379   2.503429 H        1 UNL1     0.0691
     37 H         -1.598595   -4.112856   5.0651 H        1 UNL1     0.0691
     38 H         1.959373   -5.033164   8.26924 H        1 UNL1     0.0385
     39 H         2.652381   -6.660276   8.125054 H        1 UNL1     0.0385
     40 H         0.13677   -6.653359   8.327533 H        1 UNL1     0.0789
     41 H         -1.528122   -8.118843   6.854703 H        1 UNL1     0.0623
     42 H         -1.552992   -10.347889   5.809277 H        1 UNL1     0.0654
     43 H         2.692388   -10.121069   5.197163 H        1 UNL1     0.0654
     44 H         2.743328   -7.903976   6.191074 H        1 UNL1     0.0623
     45 H         -0.312658   -12.054382   5.21476 H        1 UNL1     0.2921
     46 H         4.037926   -4.104188   4.633986 H        1 UNL1     0.2922
     47 H         -1.761944   -1.346985   -0.648444 H        1 UNL1     0.2126
     48 H         -0.991864   1.921733   0.339182 H        1 UNL1     0.2101
     49 H         1.355289   -1.394359   0.580517 H        1 UNL1     0.2100
     50 H         0.492048   1.124602   4.278622 H        1 UNL1     0.2102
@<TRIPOS>BOND
     1     1     2    1
     2     1     6    1
     3     2     3    1
     4     3     4    1
     5     3    29    1
     6     3    33    1
     7     4     5    1
     8     5     6    1
     9     5     7    1
    10     5    35    1
    11     7     8    1
    12     8     9   ar
    13     8    13   ar
    14     9    10   ar
    15     9    36    1
    16    10    11   ar
    17    10    26    1
    18    11    12   ar
    19    11    14    1
    20    12    13   ar
    21    12    17    1
    22    13    37    1
    23    14    15    1
    24    14    25    2
    25    15    16    1
    26    15    38    1
    27    15    39    1
    28    16    17    1
    29    16    18    1
    30    16    40    1
    31    18    19   ar
    32    18    23   ar
    33    19    20   ar
    34    19    41    1
    35    20    21   ar
    36    20    42    1
    37    21    22   ar
    38    21    24    1
    39    22    23   ar
    40    22    43    1
    41    23    44    1
    42    24    45    1
    43    26    46    1
    44    27    47    1
    45    28    48    1
    46    29    49    1
    47    30    50    1
    48     1    31    1
    49     1    27    1
    50     2    32    1
    51     2    28    1
    52     4    34    1
    53     4    30    1
