@<TRIPOS>MOLECULE
*****
 50 53 0 0 0
SMALL
GASTEIGER

@<TRIPOS>ATOM
     1 C         -0.214762   -1.215461   1.802036 C.3        1 UNL1     0.1889
     2 C         -0.526643   -0.910347   0.312212 C.3        1 UNL1     0.1342
     3 C         -2.020867   -0.761215   -0.012623 C.3        1 UNL1     0.1174
     4 C         -2.905431   -1.690029   0.822823 C.3        1 UNL1     0.1456
     5 C         -2.53534   -1.671074   2.317158 C.3        1 UNL1     0.2326
     6 O         -1.163699   -2.023296   2.482711 O.3        1 UNL1     -0.3076
     7 O         -2.888129   -0.443018   2.979532 O.3        1 UNL1     -0.4605
     8 C         -3.238016   -0.552515   4.313368 C.ar        1 UNL1     0.1310
     9 C         -4.105391   -1.5115   4.847512 C.ar        1 UNL1     0.0226
     10 C         -4.384513   -1.551087   6.218798 C.ar        1 UNL1     0.1343
     11 C         -3.783838   -0.646631   7.093435 C.ar        1 UNL1     0.1007
     12 C         -2.947902   0.341404   6.566385 C.ar        1 UNL1     0.1389
     13 C         -2.669475   0.38265   5.187179 C.ar        1 UNL1     0.0229
     14 C         -3.977596   -0.695901   8.561148 C.2        1 UNL1     0.1740
     15 C         -3.085763   0.204651   9.364384 C.3        1 UNL1     0.0520
     16 C         -2.960875   1.534858   8.634378 C.3        1 UNL1     0.1322
     17 O         -2.389735   1.347225   7.320733 O.3        1 UNL1     -0.4828
     18 C         -4.24213   2.371916   8.655391 C.ar        1 UNL1     -0.0067
     19 C         -4.715984   2.943038   7.456434 C.ar        1 UNL1     -0.0516
     20 C         -5.857943   3.752873   7.448746 C.ar        1 UNL1     -0.0198
     21 C         -6.529179   4.004607   8.63192 C.ar        1 UNL1     0.1169
     22 C         -6.106298   3.429272   9.823137 C.ar        1 UNL1     -0.0198
     23 C         -4.975069   2.604437   9.82805 C.ar        1 UNL1     -0.0516
     24 O         -7.615285   4.828717   8.591696 O.3        1 UNL1     -0.5068
     25 O         -4.752491   -1.47119   9.11518 O.2        1 UNL1     -0.2917
     26 O         -5.239998   -2.510686   6.675853 O.3        1 UNL1     -0.5058
     27 O         0.128357   -0.063212   2.555281 O.3        1 UNL1     -0.3648
     28 O         -0.019601   -1.992374   -0.490802 O.3        1 UNL1     -0.3841
     29 O         -2.423342   0.607542   0.068943 O.3        1 UNL1     -0.3863
     30 O         -2.773263   -3.040745   0.329076 O.3        1 UNL1     -0.3829
     31 H         0.695185   -1.825349   1.812607 H        1 UNL1     0.0937
     32 H         0.0   0.0   0.0 H        1 UNL1     0.0671
     33 H         -2.165448   -1.045676   -1.06424 H        1 UNL1     0.0649
     34 H         -3.957826   -1.408045   0.707275 H        1 UNL1     0.0683
     35 H         -3.128524   -2.487947   2.746961 H        1 UNL1     0.1085
     36 H         -4.560164   -2.276931   4.228305 H        1 UNL1     0.0691
     37 H         -2.01623   1.162515   4.801725 H        1 UNL1     0.0691
     38 H         -2.112255   -0.288824   9.455435 H        1 UNL1     0.0385
     39 H         -3.505244   0.321696   10.369429 H        1 UNL1     0.0385
     40 H         -2.2146   2.132218   9.175446 H        1 UNL1     0.0789
     41 H         -4.201584   2.768056   6.515996 H        1 UNL1     0.0623
     42 H         -6.206518   4.197184   6.519717 H        1 UNL1     0.0654
     43 H         -6.633263   3.607593   10.752879 H        1 UNL1     0.0654
     44 H         -4.679107   2.163034   10.774843 H        1 UNL1     0.0623
     45 H         -7.323111   5.707075   8.298716 H        1 UNL1     0.2921
     46 H         -4.798673   -3.038121   7.360292 H        1 UNL1     0.2922
     47 H         0.862313   0.405715   2.134241 H        1 UNL1     0.2126
     48 H         0.950816   -1.991142   -0.381162 H        1 UNL1     0.2101
     49 H         -2.031976   1.110768   -0.662761 H        1 UNL1     0.2100
     50 H         -3.148269   -3.069145   -0.57551 H        1 UNL1     0.2102
@<TRIPOS>BOND
     1     1     2    1
     2     1     6    1
     3     2     3    1
     4     3     4    1
     5     3    29    1
     6     3    33    1
     7     4     5    1
     8     5     6    1
     9     5     7    1
    10     5    35    1
    11     7     8    1
    12     8     9   ar
    13     8    13   ar
    14     9    10   ar
    15     9    36    1
    16    10    11   ar
    17    10    26    1
    18    11    12   ar
    19    11    14    1
    20    12    13   ar
    21    12    17    1
    22    13    37    1
    23    14    15    1
    24    14    25    2
    25    15    16    1
    26    15    38    1
    27    15    39    1
    28    16    17    1
    29    16    18    1
    30    16    40    1
    31    18    19   ar
    32    18    23   ar
    33    19    20   ar
    34    19    41    1
    35    20    21   ar
    36    20    42    1
    37    21    22   ar
    38    21    24    1
    39    22    23   ar
    40    22    43    1
    41    23    44    1
    42    24    45    1
    43    26    46    1
    44    27    47    1
    45    28    48    1
    46    29    49    1
    47    30    50    1
    48     1    31    1
    49     1    27    1
    50     2    32    1
    51     2    28    1
    52     4    34    1
    53     4    30    1
