@<TRIPOS>MOLECULE
*****
 50 53 0 0 0
SMALL
GASTEIGER

@<TRIPOS>ATOM
     1 C         -0.336259   -1.331711   1.698317 C.3        1 UNL1     0.1889
     2 C         -0.464683   -0.974885   0.192952 C.3        1 UNL1     0.1342
     3 C         -1.905027   -0.958016   -0.341453 C.3        1 UNL1     0.1174
     4 C         -2.794134   -2.016986   0.315197 C.3        1 UNL1     0.1456
     5 C         -2.643894   -2.046328   1.847166 C.3        1 UNL1     0.2326
     6 O         -1.279765   -2.268131   2.197625 O.3        1 UNL1     -0.3076
     7 O         -3.216959   -0.899638   2.501399 O.3        1 UNL1     -0.4605
     8 C         -3.728457   -1.117125   3.768126 C.ar        1 UNL1     0.1310
     9 C         -4.547521   -2.189251   4.138234 C.ar        1 UNL1     0.0226
     10 C         -5.002154   -2.331916   5.454615 C.ar        1 UNL1     0.1343
     11 C         -4.628863   -1.418015   6.439134 C.ar        1 UNL1     0.1007
     12 C         -3.844943   -0.320722   6.072798 C.ar        1 UNL1     0.1389
     13 C         -3.390116   -0.176055   4.74855 C.ar        1 UNL1     0.0229
     14 C         -5.011316   -1.56655   7.862447 C.2        1 UNL1     0.1740
     15 C         -4.341307   -0.622126   8.816753 C.3        1 UNL1     0.0520
     16 C         -4.26836   0.751324   8.163859 C.3        1 UNL1     0.1322
     17 O         -3.508636   0.695875   6.936335 O.3        1 UNL1     -0.4828
     18 C         -5.625973   1.446998   8.038771 C.ar        1 UNL1     -0.0067
     19 C         -6.001385   2.016151   6.804533 C.ar        1 UNL1     -0.0516
     20 C         -7.215021   2.700697   6.668717 C.ar        1 UNL1     -0.0198
     21 C         -8.056723   2.829045   7.759081 C.ar        1 UNL1     0.1169
     22 C         -7.730085   2.250667   8.978763 C.ar        1 UNL1     -0.0198
     23 C         -6.525013   1.550207   9.109971 C.ar        1 UNL1     -0.0516
     24 O         -9.212694   3.535061   7.598859 O.3        1 UNL1     -0.5068
     25 O         -5.762439   -2.447637   8.272307 O.2        1 UNL1     -0.2917
     26 O         -5.799087   -3.399242   5.750079 O.3        1 UNL1     -0.5058
     27 O         -0.229259   -0.195738   2.541468 O.3        1 UNL1     -0.3648
     28 O         0.264424   -1.953031   -0.57147 O.3        1 UNL1     -0.3841
     29 O         -2.45974   0.356597   -0.262606 O.3        1 UNL1     -0.3863
     30 O         -2.448901   -3.317259   -0.209965 O.3        1 UNL1     -0.3829
     31 H         0.623212   -1.846903   1.816943 H        1 UNL1     0.0937
     32 H         0.0   0.0   0.0 H        1 UNL1     0.0671
     33 H         -1.867602   -1.195063   -1.413894 H        1 UNL1     0.0649
     34 H         -3.843654   -1.8358   0.058136 H        1 UNL1     0.0683
     35 H         -3.200776   -2.941745   2.150466 H        1 UNL1     0.1085
     36 H         -4.826934   -2.963592   3.432228 H        1 UNL1     0.0691
     37 H         -2.78193   0.687708   4.488712 H        1 UNL1     0.0691
     38 H         -3.340023   -1.014952   9.023257 H        1 UNL1     0.0385
     39 H         -4.902388   -0.604192   9.757309 H        1 UNL1     0.0385
     40 H         -3.672709   1.393567   8.826614 H        1 UNL1     0.0789
     41 H         -5.35398   1.937064   5.93605 H        1 UNL1     0.0623
     42 H         -7.487781   3.145432   5.714869 H        1 UNL1     0.0654
     43 H         -8.388862   2.33221   9.835077 H        1 UNL1     0.0654
     44 H         -6.306715   1.102052   10.074517 H        1 UNL1     0.0623
     45 H         -8.984184   4.44481   7.348143 H        1 UNL1     0.2921
     46 H         -5.397752   -3.91367   6.468205 H        1 UNL1     0.2922
     47 H         0.513443   0.358507   2.263858 H        1 UNL1     0.2126
     48 H         1.200016   -1.878158   -0.301666 H        1 UNL1     0.2101
     49 H         -2.019209   0.939525   -0.901294 H        1 UNL1     0.2100
     50 H         -2.686593   -3.331446   -1.160235 H        1 UNL1     0.2102
@<TRIPOS>BOND
     1     1     2    1
     2     1     6    1
     3     2     3    1
     4     3     4    1
     5     3    29    1
     6     3    33    1
     7     4     5    1
     8     5     6    1
     9     5     7    1
    10     5    35    1
    11     7     8    1
    12     8     9   ar
    13     8    13   ar
    14     9    10   ar
    15     9    36    1
    16    10    11   ar
    17    10    26    1
    18    11    12   ar
    19    11    14    1
    20    12    13   ar
    21    12    17    1
    22    13    37    1
    23    14    15    1
    24    14    25    2
    25    15    16    1
    26    15    38    1
    27    15    39    1
    28    16    17    1
    29    16    18    1
    30    16    40    1
    31    18    19   ar
    32    18    23   ar
    33    19    20   ar
    34    19    41    1
    35    20    21   ar
    36    20    42    1
    37    21    22   ar
    38    21    24    1
    39    22    23   ar
    40    22    43    1
    41    23    44    1
    42    24    45    1
    43    26    46    1
    44    27    47    1
    45    28    48    1
    46    29    49    1
    47    30    50    1
    48     1    31    1
    49     1    27    1
    50     2    32    1
    51     2    28    1
    52     4    34    1
    53     4    30    1
