@<TRIPOS>MOLECULE
*****
 50 53 0 0 0
SMALL
GASTEIGER

@<TRIPOS>ATOM
     1 C         -0.447974   -0.423301   -2.095457 C.3        1 UNL1     0.1889
     2 C         0.216036   0.433645   -0.984298 C.3        1 UNL1     0.1342
     3 C         -0.198161   1.913138   -0.98191 C.3        1 UNL1     0.1174
     4 C         -0.43962   2.46413   -2.389469 C.3        1 UNL1     0.1456
     5 C         -1.302098   1.524105   -3.251354 C.3        1 UNL1     0.2326
     6 O         -0.691277   0.238082   -3.328247 O.3        1 UNL1     -0.3076
     7 O         -2.68021   1.472286   -2.839721 O.3        1 UNL1     -0.4605
     8 C         -3.61383   1.385728   -3.856771 C.ar        1 UNL1     0.1310
     9 C         -3.812413   2.342435   -4.858058 C.ar        1 UNL1     0.0226
     10 C         -4.774638   2.155033   -5.857511 C.ar        1 UNL1     0.1343
     11 C         -5.545995   0.994196   -5.893678 C.ar        1 UNL1     0.1007
     12 C         -5.385309   0.05044   -4.875696 C.ar        1 UNL1     0.1389
     13 C         -4.419568   0.240326   -3.869357 C.ar        1 UNL1     0.0229
     14 C         -6.517884   0.70645   -6.973858 C.2        1 UNL1     0.1740
     15 C         -7.093648   -0.679203   -6.977055 C.3        1 UNL1     0.0520
     16 C         -7.37807   -1.08607   -5.537777 C.3        1 UNL1     0.1322
     17 O         -6.165293   -1.075969   -4.752831 O.3        1 UNL1     -0.4828
     18 C         -8.549917   -0.33216   -4.904439 C.ar        1 UNL1     -0.0067
     19 C         -9.039262   -0.742781   -3.6474 C.ar        1 UNL1     -0.0516
     20 C         -10.139612   -0.105396   -3.061796 C.ar        1 UNL1     -0.0198
     21 C         -10.762533   0.93671   -3.724979 C.ar        1 UNL1     0.1169
     22 C         -10.283122   1.385627   -4.948693 C.ar        1 UNL1     -0.0198
     23 C         -9.17139   0.760465   -5.525998 C.ar        1 UNL1     -0.0516
     24 O         -11.854622   1.50844   -3.141142 O.3        1 UNL1     -0.5068
     25 O         -6.791324   1.503577   -7.867336 O.2        1 UNL1     -0.2917
     26 O         -4.919376   3.126675   -6.804372 O.3        1 UNL1     -0.5058
     27 O         -1.589302   -1.139313   -1.651065 O.3        1 UNL1     -0.3648
     28 O         1.64357   0.388738   -1.165498 O.3        1 UNL1     -0.3841
     29 O         -1.306508   2.127977   -0.105814 O.3        1 UNL1     -0.3863
     30 O         0.831676   2.65987   -3.046115 O.3        1 UNL1     -0.3829
     31 H         0.273227   -1.20377   -2.361569 H        1 UNL1     0.0937
     32 H         0.0   0.0   0.0 H        1 UNL1     0.0671
     33 H         0.630504   2.492673   -0.551592 H        1 UNL1     0.0649
     34 H         -0.92363   3.445197   -2.329107 H        1 UNL1     0.0683
     35 H         -1.24906   1.962957   -4.255583 H        1 UNL1     0.1085
     36 H         -3.206493   3.239907   -4.917438 H        1 UNL1     0.0691
     37 H         -4.314882   -0.508822   -3.087493 H        1 UNL1     0.0691
     38 H         -6.354448   -1.343927   -7.436676 H        1 UNL1     0.0385
     39 H         -7.996663   -0.69124   -7.596891 H        1 UNL1     0.0385
     40 H         -7.685701   -2.1404   -5.554201 H        1 UNL1     0.0789
     41 H         -8.57346   -1.564224   -3.110826 H        1 UNL1     0.0623
     42 H         -10.514937   -0.439031   -2.097518 H        1 UNL1     0.0654
     43 H         -10.75411   2.210659   -5.469658 H        1 UNL1     0.0654
     44 H         -8.817219   1.144037   -6.477986 H        1 UNL1     0.0623
     45 H         -12.217036   0.884457   -2.491513 H        1 UNL1     0.2921
     46 H         -4.257246   2.99964   -7.502124 H        1 UNL1     0.2922
     47 H         -2.384205   -0.596852   -1.749688 H        1 UNL1     0.2126
     48 H         1.972828   1.296355   -1.018689 H        1 UNL1     0.2101
     49 H         -1.739793   1.282371   0.091695 H        1 UNL1     0.2100
     50 H         1.49557   2.876919   -2.359204 H        1 UNL1     0.2102
@<TRIPOS>BOND
     1     1     2    1
     2     1     6    1
     3     2     3    1
     4     3     4    1
     5     3    29    1
     6     3    33    1
     7     4     5    1
     8     5     6    1
     9     5     7    1
    10     5    35    1
    11     7     8    1
    12     8     9   ar
    13     8    13   ar
    14     9    10   ar
    15     9    36    1
    16    10    11   ar
    17    10    26    1
    18    11    12   ar
    19    11    14    1
    20    12    13   ar
    21    12    17    1
    22    13    37    1
    23    14    15    1
    24    14    25    2
    25    15    16    1
    26    15    38    1
    27    15    39    1
    28    16    17    1
    29    16    18    1
    30    16    40    1
    31    18    19   ar
    32    18    23   ar
    33    19    20   ar
    34    19    41    1
    35    20    21   ar
    36    20    42    1
    37    21    22   ar
    38    21    24    1
    39    22    23   ar
    40    22    43    1
    41    23    44    1
    42    24    45    1
    43    26    46    1
    44    27    47    1
    45    28    48    1
    46    29    49    1
    47    30    50    1
    48     1    31    1
    49     1    27    1
    50     2    32    1
    51     2    28    1
    52     4    34    1
    53     4    30    1
