@<TRIPOS>MOLECULE
*****
 50 53 0 0 0
SMALL
GASTEIGER

@<TRIPOS>ATOM
     1 C         -0.322791   -1.362344   1.676493 C.3        1 UNL1     0.1889
     2 C         -0.464262   -0.977712   0.179167 C.3        1 UNL1     0.1342
     3 C         -1.90933   -0.949276   -0.341826 C.3        1 UNL1     0.1174
     4 C         -2.793943   -2.019085   0.303222 C.3        1 UNL1     0.1456
     5 C         -2.62997   -2.076804   1.832976 C.3        1 UNL1     0.2326
     6 O         -1.263048   -2.306662   2.166978 O.3        1 UNL1     -0.3076
     7 O         -3.195557   -0.941664   2.513335 O.3        1 UNL1     -0.4605
     8 C         -3.706169   -1.184193   3.775866 C.ar        1 UNL1     0.1310
     9 C         -4.530582   -2.259669   4.123707 C.ar        1 UNL1     0.0226
     10 C         -4.983831   -2.428805   5.437427 C.ar        1 UNL1     0.1343
     11 C         -4.603831   -1.538912   6.441185 C.ar        1 UNL1     0.1007
     12 C         -3.814414   -0.438164   6.097733 C.ar        1 UNL1     0.1389
     13 C         -3.360973   -0.266854   4.77619 C.ar        1 UNL1     0.0229
     14 C         -4.984757   -1.716674   7.861555 C.2        1 UNL1     0.1740
     15 C         -4.307923   -0.797242   8.835254 C.3        1 UNL1     0.0520
     16 C         -4.228402   0.589845   8.212659 C.3        1 UNL1     0.1322
     17 O         -3.471024   0.557269   6.982867 O.3        1 UNL1     -0.4828
     18 C         -5.582323   1.29561   8.105339 C.ar        1 UNL1     -0.0067
     19 C         -5.950218   1.906813   6.889075 C.ar        1 UNL1     -0.0516
     20 C         -7.160173   2.601135   6.771218 C.ar        1 UNL1     -0.0198
     21 C         -8.005617   2.697482   7.861983 C.ar        1 UNL1     0.1169
     22 C         -7.686478   2.077766   9.063208 C.ar        1 UNL1     -0.0198
     23 C         -6.485142   1.367731   9.175904 C.ar        1 UNL1     -0.0516
     24 O         -9.157712   3.413795   7.720661 O.3        1 UNL1     -0.5068
     25 O         -5.740101   -2.602413   8.253228 O.2        1 UNL1     -0.2917
     26 O         -5.78621   -3.497959   5.710709 O.3        1 UNL1     -0.5058
     27 O         -0.206657   -0.242214   2.539401 O.3        1 UNL1     -0.3648
     28 O         0.2566   -1.942496   -0.609665 O.3        1 UNL1     -0.3841
     29 O         -2.461512   0.36433   -0.233808 O.3        1 UNL1     -0.3863
     30 O         -2.455228   -3.309884   -0.248864 O.3        1 UNL1     -0.3829
     31 H         0.637002   -1.880786   1.776963 H        1 UNL1     0.0937
     32 H         0.0   0.0   0.0 H        1 UNL1     0.0671
     33 H         -1.881878   -1.166585   -1.41874 H        1 UNL1     0.0649
     34 H         -3.845484   -1.831934   0.059014 H        1 UNL1     0.0683
     35 H         -3.185327   -2.976982   2.124761 H        1 UNL1     0.1085
     36 H         -4.81547   -3.016698   3.401303 H        1 UNL1     0.0691
     37 H         -2.748413   0.599049   4.534374 H        1 UNL1     0.0691
     38 H         -3.308504   -1.200061   9.031275 H        1 UNL1     0.0385
     39 H         -4.867343   -0.796945   9.776969 H        1 UNL1     0.0385
     40 H         -3.628089   1.214013   8.88835 H        1 UNL1     0.0789
     41 H         -5.299726   1.853309   6.020946 H        1 UNL1     0.0623
     42 H         -7.427101   3.078283   5.83149 H        1 UNL1     0.0654
     43 H         -8.348283   2.134178   9.919212 H        1 UNL1     0.0654
     44 H         -6.272732   0.887067   10.126003 H        1 UNL1     0.0623
     45 H         -8.923686   4.335724   7.525735 H        1 UNL1     0.2921
     46 H         -5.386563   -4.030309   6.416611 H        1 UNL1     0.2922
     47 H         0.523047   0.325528   2.25469 H        1 UNL1     0.2126
     48 H         1.198198   -1.856006   -0.365442 H        1 UNL1     0.2101
     49 H         -2.031729   0.95643   -0.871379 H        1 UNL1     0.2100
     50 H         -2.701478   -3.306289   -1.197052 H        1 UNL1     0.2102
@<TRIPOS>BOND
     1     1     2    1
     2     1     6    1
     3     2     3    1
     4     3     4    1
     5     3    29    1
     6     3    33    1
     7     4     5    1
     8     5     6    1
     9     5     7    1
    10     5    35    1
    11     7     8    1
    12     8     9   ar
    13     8    13   ar
    14     9    10   ar
    15     9    36    1
    16    10    11   ar
    17    10    26    1
    18    11    12   ar
    19    11    14    1
    20    12    13   ar
    21    12    17    1
    22    13    37    1
    23    14    15    1
    24    14    25    2
    25    15    16    1
    26    15    38    1
    27    15    39    1
    28    16    17    1
    29    16    18    1
    30    16    40    1
    31    18    19   ar
    32    18    23   ar
    33    19    20   ar
    34    19    41    1
    35    20    21   ar
    36    20    42    1
    37    21    22   ar
    38    21    24    1
    39    22    23   ar
    40    22    43    1
    41    23    44    1
    42    24    45    1
    43    26    46    1
    44    27    47    1
    45    28    48    1
    46    29    49    1
    47    30    50    1
    48     1    31    1
    49     1    27    1
    50     2    32    1
    51     2    28    1
    52     4    34    1
    53     4    30    1
