@<TRIPOS>MOLECULE
*****
 50 53 0 0 0
SMALL
GASTEIGER

@<TRIPOS>ATOM
     1 C         -0.675214   -1.854656   -0.93549 C.3        1 UNL1     0.1889
     2 C         0.000554   -1.074007   0.223763 C.3        1 UNL1     0.1342
     3 C         1.43582   -1.518213   0.544945 C.3        1 UNL1     0.1174
     4 C         1.648622   -3.021914   0.353335 C.3        1 UNL1     0.1456
     5 C         1.065386   -3.535942   -0.975565 C.3        1 UNL1     0.2326
     6 O         -0.324378   -3.225971   -1.048648 O.3        1 UNL1     -0.3076
     7 O         1.803705   -3.101098   -2.131903 O.3        1 UNL1     -0.4605
     8 C         3.168404   -3.324822   -2.099186 C.ar        1 UNL1     0.1310
     9 C         4.127409   -2.417635   -1.635912 C.ar        1 UNL1     0.0226
     10 C         5.488579   -2.744813   -1.627332 C.ar        1 UNL1     0.1343
     11 C         5.9219   -3.997341   -2.060052 C.ar        1 UNL1     0.1007
     12 C         4.977845   -4.89642   -2.563243 C.ar        1 UNL1     0.1389
     13 C         3.609534   -4.566215   -2.574231 C.ar        1 UNL1     0.0229
     14 C         7.338127   -4.426463   -1.994417 C.2        1 UNL1     0.1740
     15 C         7.591791   -5.875641   -2.289521 C.3        1 UNL1     0.0520
     16 C         6.698645   -6.294701   -3.449106 C.3        1 UNL1     0.1322
     17 O         5.305004   -6.11357   -3.114406 O.3        1 UNL1     -0.4828
     18 C         7.111583   -5.691869   -4.794022 C.ar        1 UNL1     -0.0067
     19 C         8.11308   -4.699943   -4.830066 C.ar        1 UNL1     -0.0516
     20 C         8.480971   -4.094156   -6.037394 C.ar        1 UNL1     -0.0198
     21 C         7.851132   -4.465436   -7.211822 C.ar        1 UNL1     0.1169
     22 C         6.884798   -5.462951   -7.213303 C.ar        1 UNL1     -0.0198
     23 C         6.529749   -6.081963   -6.008803 C.ar        1 UNL1     -0.0516
     24 O         8.209093   -3.826706   -8.362599 O.3        1 UNL1     -0.5068
     25 O         8.253586   -3.685672   -1.645635 O.2        1 UNL1     -0.2917
     26 O         6.372955   -1.814931   -1.163885 O.3        1 UNL1     -0.5058
     27 O         -0.597379   -1.189215   -2.186056 O.3        1 UNL1     -0.3648
     28 O         -0.782878   -1.26087   1.417087 O.3        1 UNL1     -0.3841
     29 O         2.384204   -0.728771   -0.175805 O.3        1 UNL1     -0.3863
     30 O         1.019049   -3.731977   1.441975 O.3        1 UNL1     -0.3829
     31 H         -1.747088   -1.882263   -0.710983 H        1 UNL1     0.0937
     32 H         0.0   0.0   0.0 H        1 UNL1     0.0671
     33 H         1.623815   -1.303322   1.606171 H        1 UNL1     0.0649
     34 H         2.718103   -3.256403   0.393653 H        1 UNL1     0.0683
     35 H         1.144949   -4.627283   -0.894804 H        1 UNL1     0.1085
     36 H         3.849333   -1.449328   -1.234445 H        1 UNL1     0.0691
     37 H         2.894727   -5.283295   -2.97215 H        1 UNL1     0.0691
     38 H         7.355843   -6.444307   -1.383721 H        1 UNL1     0.0385
     39 H         8.654714   -6.015517   -2.514038 H        1 UNL1     0.0385
     40 H         6.813118   -7.380437   -3.569911 H        1 UNL1     0.0789
     41 H         8.616043   -4.384471   -3.920584 H        1 UNL1     0.0623
     42 H         9.246275   -3.322047   -6.05043 H        1 UNL1     0.0654
     43 H         6.395888   -5.771998   -8.129472 H        1 UNL1     0.0654
     44 H         5.778486   -6.864825   -6.048488 H        1 UNL1     0.0623
     45 H         8.099649   -2.871145   -8.229774 H        1 UNL1     0.2921
     46 H         7.086993   -2.260107   -0.680791 H        1 UNL1     0.2922
     47 H         -1.235821   -1.567276   -2.806799 H        1 UNL1     0.2126
     48 H         -0.156251   -1.491202   2.12984 H        1 UNL1     0.2101
     49 H         1.979974   0.113002   -0.44002 H        1 UNL1     0.2100
     50 H         0.174505   -4.102674   1.111758 H        1 UNL1     0.2102
@<TRIPOS>BOND
     1     1     2    1
     2     1     6    1
     3     2     3    1
     4     3     4    1
     5     3    29    1
     6     3    33    1
     7     4     5    1
     8     5     6    1
     9     5     7    1
    10     5    35    1
    11     7     8    1
    12     8     9   ar
    13     8    13   ar
    14     9    10   ar
    15     9    36    1
    16    10    11   ar
    17    10    26    1
    18    11    12   ar
    19    11    14    1
    20    12    13   ar
    21    12    17    1
    22    13    37    1
    23    14    15    1
    24    14    25    2
    25    15    16    1
    26    15    38    1
    27    15    39    1
    28    16    17    1
    29    16    18    1
    30    16    40    1
    31    18    19   ar
    32    18    23   ar
    33    19    20   ar
    34    19    41    1
    35    20    21   ar
    36    20    42    1
    37    21    22   ar
    38    21    24    1
    39    22    23   ar
    40    22    43    1
    41    23    44    1
    42    24    45    1
    43    26    46    1
    44    27    47    1
    45    28    48    1
    46    29    49    1
    47    30    50    1
    48     1    31    1
    49     1    27    1
    50     2    32    1
    51     2    28    1
    52     4    34    1
    53     4    30    1
