@<TRIPOS>MOLECULE
*****
 50 53 0 0 0
SMALL
GASTEIGER

@<TRIPOS>ATOM
     1 C         -0.66092   -1.086037   1.776095 C.3        1 UNL1     0.1889
     2 C         -0.541762   -0.924119   0.236769 C.3        1 UNL1     0.1342
     3 C         -1.882308   -0.925423   -0.513831 C.3        1 UNL1     0.1174
     4 C         -2.917336   -1.85719   0.121499 C.3        1 UNL1     0.1456
     5 C         -3.000787   -1.691945   1.649928 C.3        1 UNL1     0.2326
     6 O         -1.719211   -1.914939   2.233628 O.3        1 UNL1     -0.3076
     7 O         -3.601106   -0.449951   2.060278 O.3        1 UNL1     -0.4605
     8 C         -4.317855   -0.484655   3.2429 C.ar        1 UNL1     0.1310
     9 C         -5.241771   -1.472002   3.601822 C.ar        1 UNL1     0.0226
     10 C         -5.906295   -1.428032   4.833235 C.ar        1 UNL1     0.1343
     11 C         -5.645068   -0.407486   5.746518 C.ar        1 UNL1     0.1007
     12 C         -4.755042   0.606463   5.382449 C.ar        1 UNL1     0.1389
     13 C         -4.088972   0.563453   4.143122 C.ar        1 UNL1     0.0229
     14 C         -6.255693   -0.357917   7.095159 C.2        1 UNL1     0.1740
     15 C         -5.695501   0.679072   8.023808 C.3        1 UNL1     0.0520
     16 C         -5.446128   1.95338   7.228882 C.3        1 UNL1     0.1322
     17 O         -4.505571   1.714377   6.158695 O.3        1 UNL1     -0.4828
     18 C         -6.72729   2.671953   6.798763 C.ar        1 UNL1     -0.0067
     19 C         -6.658192   3.684146   5.819527 C.ar        1 UNL1     -0.0516
     20 C         -7.803141   4.393546   5.437681 C.ar        1 UNL1     -0.0198
     21 C         -9.019026   4.105893   6.031572 C.ar        1 UNL1     0.1169
     22 C         -9.12509   3.091911   6.974668 C.ar        1 UNL1     -0.0198
     23 C         -7.983706   2.369829   7.343312 C.ar        1 UNL1     -0.0516
     24 O         -10.105214   4.843319   5.661708 O.3        1 UNL1     -0.5068
     25 O         -7.108635   -1.153063   7.480797 O.2        1 UNL1     -0.2917
     26 O         -6.796304   -2.42101   5.122134 O.3        1 UNL1     -0.5058
     27 O         -0.618925   0.145581   2.479046 O.3        1 UNL1     -0.3648
     28 O         0.23849   -2.019076   -0.277996 O.3        1 UNL1     -0.3841
     29 O         -2.368765   0.407288   -0.685211 O.3        1 UNL1     -0.3863
     30 O         -2.569817   -3.226362   -0.178981 O.3        1 UNL1     -0.3829
     31 H         0.239764   -1.615438   2.105611 H        1 UNL1     0.0937
     32 H         0.0   0.0   -0.0 H        1 UNL1     0.0671
     33 H         -1.697422   -1.301437   -1.52978 H        1 UNL1     0.0649
     34 H         -3.904645   -1.673545   -0.316561 H        1 UNL1     0.0683
     35 H         -3.645724   -2.519635   1.970652 H        1 UNL1     0.1085
     36 H         -5.447066   -2.321362   2.959512 H        1 UNL1     0.0691
     37 H         -3.401658   1.365596   3.883007 H        1 UNL1     0.0691
     38 H         -4.762231   0.28305   8.438175 H        1 UNL1     0.0385
     39 H         -6.396759   0.837166   8.850259 H        1 UNL1     0.0385
     40 H         -4.929318   2.655682   7.896864 H        1 UNL1     0.0789
     41 H         -5.713971   3.935074   5.345047 H        1 UNL1     0.0623
     42 H         -7.734744   5.179914   4.690045 H        1 UNL1     0.0654
     43 H         -10.075107   2.84822   7.435094 H        1 UNL1     0.0654
     44 H         -8.105154   1.577321   8.07545 H        1 UNL1     0.0623
     45 H         -9.961988   5.761936   5.941609 H        1 UNL1     0.2921
     46 H         -6.554907   -2.83669   5.964957 H        1 UNL1     0.2922
     47 H         0.177796   0.63997   2.240982 H        1 UNL1     0.2126
     48 H         1.144775   -1.903151   0.066884 H        1 UNL1     0.2101
     49 H         -1.81074   0.883102   -1.320824 H        1 UNL1     0.2100
     50 H         -2.684264   -3.362   -1.142421 H        1 UNL1     0.2102
@<TRIPOS>BOND
     1     1     2    1
     2     1     6    1
     3     2     3    1
     4     3     4    1
     5     3    29    1
     6     3    33    1
     7     4     5    1
     8     5     6    1
     9     5     7    1
    10     5    35    1
    11     7     8    1
    12     8     9   ar
    13     8    13   ar
    14     9    10   ar
    15     9    36    1
    16    10    11   ar
    17    10    26    1
    18    11    12   ar
    19    11    14    1
    20    12    13   ar
    21    12    17    1
    22    13    37    1
    23    14    15    1
    24    14    25    2
    25    15    16    1
    26    15    38    1
    27    15    39    1
    28    16    17    1
    29    16    18    1
    30    16    40    1
    31    18    19   ar
    32    18    23   ar
    33    19    20   ar
    34    19    41    1
    35    20    21   ar
    36    20    42    1
    37    21    22   ar
    38    21    24    1
    39    22    23   ar
    40    22    43    1
    41    23    44    1
    42    24    45    1
    43    26    46    1
    44    27    47    1
    45    28    48    1
    46    29    49    1
    47    30    50    1
    48     1    31    1
    49     1    27    1
    50     2    32    1
    51     2    28    1
    52     4    34    1
    53     4    30    1
