@<TRIPOS>MOLECULE
*****
 50 53 0 0 0
SMALL
GASTEIGER

@<TRIPOS>ATOM
     1 C         1.30749   -0.564209   1.656183 C.3        1 UNL1     0.1889
     2 C         0.674064   -0.824632   0.263024 C.3        1 UNL1     0.1342
     3 C         -0.08875   -2.152908   0.143604 C.3        1 UNL1     0.1174
     4 C         0.547011   -3.278233   0.963708 C.3        1 UNL1     0.1456
     5 C         0.908976   -2.834961   2.392993 C.3        1 UNL1     0.2326
     6 O         1.78396   -1.710204   2.346158 O.3        1 UNL1     -0.3076
     7 O         -0.238515   -2.624501   3.23578 O.3        1 UNL1     -0.4605
     8 C         -1.160007   -3.655488   3.2738 C.ar        1 UNL1     0.1310
     9 C         -0.940884   -4.91788   3.83563 C.ar        1 UNL1     0.0226
     10 C         -1.945964   -5.892403   3.84015 C.ar        1 UNL1     0.1343
     11 C         -3.203612   -5.619754   3.303656 C.ar        1 UNL1     0.1007
     12 C         -3.421256   -4.376875   2.7031 C.ar        1 UNL1     0.1389
     13 C         -2.409642   -3.398089   2.696324 C.ar        1 UNL1     0.0229
     14 C         -4.327805   -6.582834   3.356759 C.2        1 UNL1     0.1740
     15 C         -5.663941   -6.044995   2.936023 C.3        1 UNL1     0.0520
     16 C         -5.461003   -5.142882   1.726491 C.3        1 UNL1     0.1322
     17 O         -4.584361   -4.041072   2.049885 O.3        1 UNL1     -0.4828
     18 C         -5.085042   -5.899094   0.449964 C.ar        1 UNL1     -0.0067
     19 C         -3.788947   -6.439282   0.321319 C.ar        1 UNL1     -0.0516
     20 C         -3.397354   -7.095342   -0.851797 C.ar        1 UNL1     -0.0198
     21 C         -4.28818   -7.211071   -1.903873 C.ar        1 UNL1     0.1169
     22 C         -5.58224   -6.718851   -1.794483 C.ar        1 UNL1     -0.0198
     23 C         -5.980019   -6.078983   -0.614484 C.ar        1 UNL1     -0.0516
     24 O         -3.859077   -7.823113   -3.044783 O.3        1 UNL1     -0.5068
     25 O         -4.217798   -7.727324   3.788647 O.2        1 UNL1     -0.2917
     26 O         -1.667774   -7.103854   4.402805 O.3        1 UNL1     -0.5058
     27 O         0.511473   0.258408   2.494304 O.3        1 UNL1     -0.3648
     28 O         1.72598   -0.844887   -0.719711 O.3        1 UNL1     -0.3841
     29 O         -1.475248   -1.969531   0.437077 O.3        1 UNL1     -0.3863
     30 O         1.74769   -3.728454   0.299358 O.3        1 UNL1     -0.3829
     31 H         2.214259   0.02537   1.482275 H        1 UNL1     0.0937
     32 H         -0.0   0.0   0.0 H        1 UNL1     0.0671
     33 H         -0.052355   -2.467068   -0.908869 H        1 UNL1     0.0649
     34 H         -0.133179   -4.135774   1.01235 H        1 UNL1     0.0683
     35 H         1.49104   -3.675503   2.791202 H        1 UNL1     0.1085
     36 H         -0.003569   -5.172389   4.318109 H        1 UNL1     0.0691
     37 H         -2.603887   -2.438787   2.221455 H        1 UNL1     0.0691
     38 H         -6.076664   -5.484741   3.781777 H        1 UNL1     0.0385
     39 H         -6.336056   -6.882434   2.71984 H        1 UNL1     0.0385
     40 H         -6.428254   -4.669649   1.509702 H        1 UNL1     0.0789
     41 H         -3.06823   -6.353545   1.12932 H        1 UNL1     0.0623
     42 H         -2.391295   -7.497178   -0.94337 H        1 UNL1     0.0654
     43 H         -6.292701   -6.817302   -2.606557 H        1 UNL1     0.0654
     44 H         -7.001774   -5.715872   -0.559602 H        1 UNL1     0.0623
     45 H         -3.005434   -8.248224   -2.862323 H        1 UNL1     0.2921
     46 H         -2.495797   -7.58254   4.566048 H        1 UNL1     0.2922
     47 H         0.908918   0.324344   3.373821 H        1 UNL1     0.2126
     48 H         2.216123   -0.005862   -0.622098 H        1 UNL1     0.2101
     49 H         -1.654425   -2.223726   1.356357 H        1 UNL1     0.2100
     50 H         2.483091   -3.687531   0.945286 H        1 UNL1     0.2102
@<TRIPOS>BOND
     1     1     2    1
     2     1     6    1
     3     2     3    1
     4     3     4    1
     5     3    29    1
     6     3    33    1
     7     4     5    1
     8     5     6    1
     9     5     7    1
    10     5    35    1
    11     7     8    1
    12     8     9   ar
    13     8    13   ar
    14     9    10   ar
    15     9    36    1
    16    10    11   ar
    17    10    26    1
    18    11    12   ar
    19    11    14    1
    20    12    13   ar
    21    12    17    1
    22    13    37    1
    23    14    15    1
    24    14    25    2
    25    15    16    1
    26    15    38    1
    27    15    39    1
    28    16    17    1
    29    16    18    1
    30    16    40    1
    31    18    19   ar
    32    18    23   ar
    33    19    20   ar
    34    19    41    1
    35    20    21   ar
    36    20    42    1
    37    21    22   ar
    38    21    24    1
    39    22    23   ar
    40    22    43    1
    41    23    44    1
    42    24    45    1
    43    26    46    1
    44    27    47    1
    45    28    48    1
    46    29    49    1
    47    30    50    1
    48     1    31    1
    49     1    27    1
    50     2    32    1
    51     2    28    1
    52     4    34    1
    53     4    30    1
