@<TRIPOS>MOLECULE
*****
 50 53 0 0 0
SMALL
GASTEIGER

@<TRIPOS>ATOM
     1 C         -1.55882   0.924574   1.219035 C.3        1 UNL1     0.1889
     2 C         -0.154633   0.285076   1.048037 C.3        1 UNL1     0.1342
     3 C         0.107342   -0.935717   1.943302 C.3        1 UNL1     0.1174
     4 C         -0.565984   -0.822441   3.313309 C.3        1 UNL1     0.1456
     5 C         -2.031539   -0.361226   3.214347 C.3        1 UNL1     0.2326
     6 O         -2.102944   0.887618   2.530125 O.3        1 UNL1     -0.3076
     7 O         -2.910573   -1.359068   2.663957 O.3        1 UNL1     -0.4605
     8 C         -4.04838   -0.884845   2.036232 C.ar        1 UNL1     0.1310
     9 C         -4.871354   -1.626539   1.181888 C.ar        1 UNL1     0.0226
     10 C         -6.014958   -1.05998   0.606489 C.ar        1 UNL1     0.1343
     11 C         -6.376749   0.256153   0.890644 C.ar        1 UNL1     0.1007
     12 C         -5.54053   1.019424   1.709752 C.ar        1 UNL1     0.1389
     13 C         -4.389267   0.450329   2.286082 C.ar        1 UNL1     0.0229
     14 C         -7.618931   0.87863   0.377168 C.2        1 UNL1     0.1740
     15 C         -7.962773   2.21803   0.959689 C.3        1 UNL1     0.0520
     16 C         -6.680241   3.026586   1.098638 C.3        1 UNL1     0.1322
     17 O         -5.742539   2.355233   1.968737 O.3        1 UNL1     -0.4828
     18 C         -6.090866   3.481747   -0.238594 C.ar        1 UNL1     -0.0067
     19 C         -6.641983   2.992469   -1.440713 C.ar        1 UNL1     -0.0516
     20 C         -6.096835   3.351333   -2.679258 C.ar        1 UNL1     -0.0198
     21 C         -4.998503   4.191006   -2.728678 C.ar        1 UNL1     0.1169
     22 C         -4.454283   4.715704   -1.563621 C.ar        1 UNL1     -0.0198
     23 C         -5.010688   4.37169   -0.325831 C.ar        1 UNL1     -0.0516
     24 O         -4.471453   4.488278   -3.951072 O.3        1 UNL1     -0.5068
     25 O         -8.377572   0.3223   -0.412419 O.2        1 UNL1     -0.2917
     26 O         -6.774567   -1.836738   -0.218875 O.3        1 UNL1     -0.5058
     27 O         -2.499304   0.491206   0.249257 O.3        1 UNL1     -0.3648
     28 O         0.839713   1.274726   1.371416 O.3        1 UNL1     -0.3841
     29 O         -0.226691   -2.146006   1.26084 O.3        1 UNL1     -0.3863
     30 O         0.164654   0.123872   4.123464 O.3        1 UNL1     -0.3829
     31 H         -1.44108   1.99551   1.020761 H        1 UNL1     0.0937
     32 H         0.0   -0.0   0.0 H        1 UNL1     0.0671
     33 H         1.189724   -0.992329   2.124864 H        1 UNL1     0.0649
     34 H         -0.524587   -1.787018   3.831264 H        1 UNL1     0.0683
     35 H         -2.319967   -0.171271   4.255791 H        1 UNL1     0.1085
     36 H         -4.67518   -2.671051   0.965948 H        1 UNL1     0.0691
     37 H         -3.754211   1.066087   2.919358 H        1 UNL1     0.0691
     38 H         -8.428293   2.045001   1.935844 H        1 UNL1     0.0385
     39 H         -8.696202   2.712744   0.313843 H        1 UNL1     0.0385
     40 H         -6.936874   3.951363   1.632909 H        1 UNL1     0.0789
     41 H         -7.498461   2.32468   -1.428322 H        1 UNL1     0.0623
     42 H         -6.523399   2.957958   -3.598666 H        1 UNL1     0.0654
     43 H         -3.603543   5.386053   -1.591632 H        1 UNL1     0.0654
     44 H         -4.566717   4.808489   0.563518 H        1 UNL1     0.0623
     45 H         -4.947003   5.25392   -4.312126 H        1 UNL1     0.2921
     46 H         -7.570501   -1.347817   -0.481281 H        1 UNL1     0.2922
     47 H         -2.949567   -0.309058   0.553724 H        1 UNL1     0.2126
     48 H         1.52355   0.821424   1.90115 H        1 UNL1     0.2101
     49 H         -1.190758   -2.253495   1.232305 H        1 UNL1     0.2100
     50 H         -0.336371   0.965685   4.129491 H        1 UNL1     0.2102
@<TRIPOS>BOND
     1     1     2    1
     2     1     6    1
     3     2     3    1
     4     3     4    1
     5     3    29    1
     6     3    33    1
     7     4     5    1
     8     5     6    1
     9     5     7    1
    10     5    35    1
    11     7     8    1
    12     8     9   ar
    13     8    13   ar
    14     9    10   ar
    15     9    36    1
    16    10    11   ar
    17    10    26    1
    18    11    12   ar
    19    11    14    1
    20    12    13   ar
    21    12    17    1
    22    13    37    1
    23    14    15    1
    24    14    25    2
    25    15    16    1
    26    15    38    1
    27    15    39    1
    28    16    17    1
    29    16    18    1
    30    16    40    1
    31    18    19   ar
    32    18    23   ar
    33    19    20   ar
    34    19    41    1
    35    20    21   ar
    36    20    42    1
    37    21    22   ar
    38    21    24    1
    39    22    23   ar
    40    22    43    1
    41    23    44    1
    42    24    45    1
    43    26    46    1
    44    27    47    1
    45    28    48    1
    46    29    49    1
    47    30    50    1
    48     1    31    1
    49     1    27    1
    50     2    32    1
    51     2    28    1
    52     4    34    1
    53     4    30    1
