@<TRIPOS>MOLECULE
*****
 50 53 0 0 0
SMALL
GASTEIGER

@<TRIPOS>ATOM
     1 C         -0.337043   -1.330421   1.699172 C.3        1 UNL1     0.1889
     2 C         -0.465087   -0.974575   0.193543 C.3        1 UNL1     0.1342
     3 C         -1.905338   -0.957521   -0.341108 C.3        1 UNL1     0.1174
     4 C         -2.794956   -2.015702   0.316122 C.3        1 UNL1     0.1456
     5 C         -2.644976   -2.044055   1.848135 C.3        1 UNL1     0.2326
     6 O         -1.280987   -2.266139   2.198967 O.3        1 UNL1     -0.3076
     7 O         -3.217707   -0.896699   2.501491 O.3        1 UNL1     -0.4605
     8 C         -3.729494   -1.113125   3.768283 C.ar        1 UNL1     0.1310
     9 C         -4.549028   -2.184685   4.138992 C.ar        1 UNL1     0.0226
     10 C         -5.003928   -2.326276   5.455396 C.ar        1 UNL1     0.1343
     11 C         -4.630447   -1.411845   6.439351 C.ar        1 UNL1     0.1007
     12 C         -3.846048   -0.315103   6.072393 C.ar        1 UNL1     0.1389
     13 C         -3.390951   -0.171514   4.748119 C.ar        1 UNL1     0.0229
     14 C         -5.013188   -1.559261   7.862703 C.2        1 UNL1     0.1740
     15 C         -4.342972   -0.614441   8.816472 C.3        1 UNL1     0.0520
     16 C         -4.269394   0.758534   8.162651 C.3        1 UNL1     0.1322
     17 O         -3.509492   0.701955   6.935289 O.3        1 UNL1     -0.4828
     18 C         -5.626721   1.454641   8.036868 C.ar        1 UNL1     -0.0067
     19 C         -6.00211   2.022278   6.801925 C.ar        1 UNL1     -0.0516
     20 C         -7.215467   2.707179   6.665402 C.ar        1 UNL1     -0.0198
     21 C         -8.056907   2.837388   7.755747 C.ar        1 UNL1     0.1169
     22 C         -7.730298   2.260528   8.976155 C.ar        1 UNL1     -0.0198
     23 C         -6.525514   1.559711   9.108094 C.ar        1 UNL1     -0.0516
     24 O         -9.212595   3.5437   7.594778 O.3        1 UNL1     -0.5068
     25 O         -5.764714   -2.439781   8.273043 O.2        1 UNL1     -0.2917
     26 O         -5.801317   -3.393095   5.75146 O.3        1 UNL1     -0.5058
     27 O         -0.229745   -0.193913   2.541564 O.3        1 UNL1     -0.3648
     28 O         0.263769   -1.953522   -0.570092 O.3        1 UNL1     -0.3841
     29 O         -2.459561   0.357358   -0.263249 O.3        1 UNL1     -0.3863
     30 O         -2.450135   -3.316465   -0.208095 O.3        1 UNL1     -0.3829
     31 H         0.622212   -1.845899   1.818306 H        1 UNL1     0.0937
     32 H         0.0   0.0   0.0 H        1 UNL1     0.0671
     33 H         -1.86783   -1.195315   -1.41338 H        1 UNL1     0.0649
     34 H         -3.844365   -1.83429   0.058767 H        1 UNL1     0.0683
     35 H         -3.202249   -2.939051   2.151956 H        1 UNL1     0.1085
     36 H         -4.828623   -2.959401   3.433469 H        1 UNL1     0.0691
     37 H         -2.782393   0.691839   4.48779 H        1 UNL1     0.0691
     38 H         -3.341871   -1.00751   9.023406 H        1 UNL1     0.0385
     39 H         -4.904198   -0.59565   9.756924 H        1 UNL1     0.0385
     40 H         -3.673604   1.401002   8.825064 H        1 UNL1     0.0789
     41 H         -5.354903   1.941718   5.93343 H        1 UNL1     0.0623
     42 H         -7.488207   3.150734   5.711 H        1 UNL1     0.0654
     43 H         -8.38888   2.343531   9.83248 H        1 UNL1     0.0654
     44 H         -6.307236   1.112774   10.073209 H        1 UNL1     0.0623
     45 H         -8.983878   4.451513   7.337329 H        1 UNL1     0.2921
     46 H         -5.399605   -3.907963   6.46906 H        1 UNL1     0.2922
     47 H         0.514901   0.358438   2.265396 H        1 UNL1     0.2126
     48 H         1.196563   -1.890516   -0.287854 H        1 UNL1     0.2101
     49 H         -2.018585   0.939724   -0.902142 H        1 UNL1     0.2100
     50 H         -2.682455   -3.329295   -1.159713 H        1 UNL1     0.2102
@<TRIPOS>BOND
     1     1     2    1
     2     1     6    1
     3     2     3    1
     4     3     4    1
     5     3    29    1
     6     3    33    1
     7     4     5    1
     8     5     6    1
     9     5     7    1
    10     5    35    1
    11     7     8    1
    12     8     9   ar
    13     8    13   ar
    14     9    10   ar
    15     9    36    1
    16    10    11   ar
    17    10    26    1
    18    11    12   ar
    19    11    14    1
    20    12    13   ar
    21    12    17    1
    22    13    37    1
    23    14    15    1
    24    14    25    2
    25    15    16    1
    26    15    38    1
    27    15    39    1
    28    16    17    1
    29    16    18    1
    30    16    40    1
    31    18    19   ar
    32    18    23   ar
    33    19    20   ar
    34    19    41    1
    35    20    21   ar
    36    20    42    1
    37    21    22   ar
    38    21    24    1
    39    22    23   ar
    40    22    43    1
    41    23    44    1
    42    24    45    1
    43    26    46    1
    44    27    47    1
    45    28    48    1
    46    29    49    1
    47    30    50    1
    48     1    31    1
    49     1    27    1
    50     2    32    1
    51     2    28    1
    52     4    34    1
    53     4    30    1
