@<TRIPOS>MOLECULE
*****
 50 53 0 0 0
SMALL
GASTEIGER

@<TRIPOS>ATOM
     1 C         -0.345569   -1.336324   1.692815 C.3        1 UNL1     0.1889
     2 C         -0.469086   -0.973659   0.188436 C.3        1 UNL1     0.1342
     3 C         -1.90812   -0.94903   -0.349189 C.3        1 UNL1     0.1174
     4 C         -2.803032   -2.006681   0.301675 C.3        1 UNL1     0.1456
     5 C         -2.656428   -2.042051   1.833869 C.3        1 UNL1     0.2326
     6 O         -1.29402   -2.27065   2.186649 O.3        1 UNL1     -0.3076
     7 O         -3.226322   -0.895355   2.490854 O.3        1 UNL1     -0.4605
     8 C         -3.741606   -1.115232   3.755632 C.ar        1 UNL1     0.1310
     9 C         -4.653574   -2.120219   4.095656 C.ar        1 UNL1     0.0226
     10 C         -5.104651   -2.272991   5.412125 C.ar        1 UNL1     0.1343
     11 C         -4.63597   -1.438631   6.42604 C.ar        1 UNL1     0.1007
     12 C         -3.75658   -0.405476   6.091305 C.ar        1 UNL1     0.1389
     13 C         -3.30521   -0.250412   4.76705 C.ar        1 UNL1     0.0229
     14 C         -5.014532   -1.608322   7.848028 C.2        1 UNL1     0.1740
     15 C         -4.247939   -0.770109   8.828478 C.3        1 UNL1     0.0520
     16 C         -4.053618   0.615833   8.229013 C.3        1 UNL1     0.1322
     17 O         -3.316435   0.539403   6.988936 O.3        1 UNL1     -0.4828
     18 C         -5.341158   1.439853   8.151845 C.ar        1 UNL1     -0.0067
     19 C         -5.667836   2.103362   6.951324 C.ar        1 UNL1     -0.0516
     20 C         -6.813113   2.903512   6.86152 C.ar        1 UNL1     -0.0198
     21 C         -7.634006   3.053766   7.964871 C.ar        1 UNL1     0.1169
     22 C         -7.356817   2.386347   9.150855 C.ar        1 UNL1     -0.0198
     23 C         -6.221571   1.571401   9.23534 C.ar        1 UNL1     -0.0516
     24 O         -8.719986   3.871159   7.851224 O.3        1 UNL1     -0.5068
     25 O         -5.840456   -2.431226   8.234247 O.2        1 UNL1     -0.2917
     26 O         -5.994983   -3.272246   5.677425 O.3        1 UNL1     -0.5058
     27 O         -0.235883   -0.203785   2.540229 O.3        1 UNL1     -0.3648
     28 O         0.257787   -1.95206   -0.577784 O.3        1 UNL1     -0.3841
     29 O         -2.45766   0.367547   -0.266948 O.3        1 UNL1     -0.3863
     30 O         -2.461887   -3.306486   -0.227304 O.3        1 UNL1     -0.3829
     31 H         0.611523   -1.855839   1.811802 H        1 UNL1     0.0937
     32 H         0.0   0.0   0.0 H        1 UNL1     0.0671
     33 H         -1.869199   -1.182434   -1.422375 H        1 UNL1     0.0649
     34 H         -3.851213   -1.820311   0.042866 H        1 UNL1     0.0683
     35 H         -3.217643   -2.936257   2.132723 H        1 UNL1     0.1085
     36 H         -5.012523   -2.835804   3.364073 H        1 UNL1     0.0691
     37 H         -2.621509   0.562539   4.532196 H        1 UNL1     0.0691
     38 H         -3.285737   -1.262851   9.004262 H        1 UNL1     0.0385
     39 H         -4.794151   -0.737939   9.777371 H        1 UNL1     0.0385
     40 H         -3.392759   1.172202   8.907422 H        1 UNL1     0.0789
     41 H         -5.03475   2.00883   6.073874 H        1 UNL1     0.0623
     42 H         -7.04783   3.419529   5.93381 H        1 UNL1     0.0654
     43 H         -8.001055   2.484993   10.016381 H        1 UNL1     0.0654
     44 H         -6.041345   1.056489   10.174078 H        1 UNL1     0.0623
     45 H         -8.40883   4.767942   7.647072 H        1 UNL1     0.2921
     46 H         -5.635665   -3.850612   6.368653 H        1 UNL1     0.2922
     47 H         0.508859   0.349121   2.265433 H        1 UNL1     0.2126
     48 H         1.193503   -1.880009   -0.307645 H        1 UNL1     0.2101
     49 H         -2.01902   0.948903   -0.908364 H        1 UNL1     0.2100
     50 H         -2.697455   -3.316345   -1.178158 H        1 UNL1     0.2102
@<TRIPOS>BOND
     1     1     2    1
     2     1     6    1
     3     2     3    1
     4     3     4    1
     5     3    29    1
     6     3    33    1
     7     4     5    1
     8     5     6    1
     9     5     7    1
    10     5    35    1
    11     7     8    1
    12     8     9   ar
    13     8    13   ar
    14     9    10   ar
    15     9    36    1
    16    10    11   ar
    17    10    26    1
    18    11    12   ar
    19    11    14    1
    20    12    13   ar
    21    12    17    1
    22    13    37    1
    23    14    15    1
    24    14    25    2
    25    15    16    1
    26    15    38    1
    27    15    39    1
    28    16    17    1
    29    16    18    1
    30    16    40    1
    31    18    19   ar
    32    18    23   ar
    33    19    20   ar
    34    19    41    1
    35    20    21   ar
    36    20    42    1
    37    21    22   ar
    38    21    24    1
    39    22    23   ar
    40    22    43    1
    41    23    44    1
    42    24    45    1
    43    26    46    1
    44    27    47    1
    45    28    48    1
    46    29    49    1
    47    30    50    1
    48     1    31    1
    49     1    27    1
    50     2    32    1
    51     2    28    1
    52     4    34    1
    53     4    30    1
