@<TRIPOS>MOLECULE
*****
 50 53 0 0 0
SMALL
GASTEIGER

@<TRIPOS>ATOM
     1 C         2.112031   -0.507282   0.229772 C.3        1 UNL1     0.1889
     2 C         0.719265   -0.71111   -0.424902 C.3        1 UNL1     0.1342
     3 C         0.152702   -2.133498   -0.297293 C.3        1 UNL1     0.1174
     4 C         1.237413   -3.21193   -0.356483 C.3        1 UNL1     0.1456
     5 C         2.444947   -2.884362   0.540693 C.3        1 UNL1     0.2326
     6 O         2.992898   -1.619725   0.175573 O.3        1 UNL1     -0.3076
     7 O         2.160158   -2.992831   1.947267 O.3        1 UNL1     -0.4605
     8 C         3.175427   -2.604951   2.803016 C.ar        1 UNL1     0.1310
     9 C         3.000361   -1.918912   4.009665 C.ar        1 UNL1     0.0226
     10 C         4.093866   -1.584578   4.817359 C.ar        1 UNL1     0.1343
     11 C         5.388129   -1.949518   4.449196 C.ar        1 UNL1     0.1007
     12 C         5.579565   -2.598673   3.226603 C.ar        1 UNL1     0.1389
     13 C         4.480143   -2.932395   2.41338 C.ar        1 UNL1     0.0229
     14 C         6.570498   -1.695818   5.304646 C.2        1 UNL1     0.1740
     15 C         7.845685   -2.350138   4.860446 C.3        1 UNL1     0.0520
     16 C         7.938089   -2.245689   3.344362 C.3        1 UNL1     0.1322
     17 O         6.818691   -2.907976   2.715559 O.3        1 UNL1     -0.4828
     18 C         8.199659   -0.824649   2.839435 C.ar        1 UNL1     -0.0067
     19 C         7.731493   -0.445535   1.56456 C.ar        1 UNL1     -0.0516
     20 C         7.994493   0.830856   1.053072 C.ar        1 UNL1     -0.0198
     21 C         8.729185   1.732686   1.801909 C.ar        1 UNL1     0.1169
     22 C         9.175101   1.400214   3.074489 C.ar        1 UNL1     -0.0198
     23 C         8.896433   0.130274   3.593771 C.ar        1 UNL1     -0.0516
     24 O         8.997924   2.953164   1.255453 O.3        1 UNL1     -0.5068
     25 O         6.521019   -1.062934   6.356071 O.2        1 UNL1     -0.2917
     26 O         3.855292   -0.914175   5.981501 O.3        1 UNL1     -0.5058
     27 O         2.047921   0.04694   1.534193 O.3        1 UNL1     -0.3648
     28 O         0.82854   -0.418002   -1.830197 O.3        1 UNL1     -0.3841
     29 O         -0.677591   -2.246609   0.86027 O.3        1 UNL1     -0.3863
     30 O         1.695386   -3.348908   -1.71927 O.3        1 UNL1     -0.3829
     31 H         2.627424   0.256535   -0.362708 H        1 UNL1     0.0937
     32 H         -0.0   0.0   0.0 H        1 UNL1     0.0671
     33 H         -0.514648   -2.306675   -1.153081 H        1 UNL1     0.0649
     34 H         0.81878   -4.180095   -0.060166 H        1 UNL1     0.0683
     35 H         3.188941   -3.64427   0.270709 H        1 UNL1     0.1085
     36 H         2.014905   -1.656427   4.378582 H        1 UNL1     0.0691
     37 H         4.656013   -3.436815   1.465686 H        1 UNL1     0.0691
     38 H         7.810923   -3.396252   5.182878 H        1 UNL1     0.0385
     39 H         8.690973   -1.865801   5.36113 H        1 UNL1     0.0385
     40 H         8.813814   -2.830736   3.032362 H        1 UNL1     0.0789
     41 H         7.160411   -1.138353   0.953399 H        1 UNL1     0.0623
     42 H         7.638248   1.107172   0.063754 H        1 UNL1     0.0654
     43 H         9.738383   2.104019   3.675556 H        1 UNL1     0.0654
     44 H         9.251107   -0.091887   4.595617 H        1 UNL1     0.0623
     45 H         9.696664   3.376842   1.779835 H        1 UNL1     0.2921
     46 H         4.698817   -0.703234   6.412061 H        1 UNL1     0.2922
     47 H         1.739243   0.962889   1.494008 H        1 UNL1     0.2126
     48 H         0.965727   -1.271733   -2.28413 H        1 UNL1     0.2101
     49 H         -1.390882   -2.883249   0.693839 H        1 UNL1     0.2100
     50 H         1.093642   -2.830869   -2.293076 H        1 UNL1     0.2102
@<TRIPOS>BOND
     1     1     2    1
     2     1     6    1
     3     2     3    1
     4     3     4    1
     5     3    29    1
     6     3    33    1
     7     4     5    1
     8     5     6    1
     9     5     7    1
    10     5    35    1
    11     7     8    1
    12     8     9   ar
    13     8    13   ar
    14     9    10   ar
    15     9    36    1
    16    10    11   ar
    17    10    26    1
    18    11    12   ar
    19    11    14    1
    20    12    13   ar
    21    12    17    1
    22    13    37    1
    23    14    15    1
    24    14    25    2
    25    15    16    1
    26    15    38    1
    27    15    39    1
    28    16    17    1
    29    16    18    1
    30    16    40    1
    31    18    19   ar
    32    18    23   ar
    33    19    20   ar
    34    19    41    1
    35    20    21   ar
    36    20    42    1
    37    21    22   ar
    38    21    24    1
    39    22    23   ar
    40    22    43    1
    41    23    44    1
    42    24    45    1
    43    26    46    1
    44    27    47    1
    45    28    48    1
    46    29    49    1
    47    30    50    1
    48     1    31    1
    49     1    27    1
    50     2    32    1
    51     2    28    1
    52     4    34    1
    53     4    30    1
