@<TRIPOS>MOLECULE
*****
 50 53 0 0 0
SMALL
GASTEIGER

@<TRIPOS>ATOM
     1 C         -0.287503   -1.348406   1.694092 C.3        1 UNL1     0.1889
     2 C         -0.441446   -0.985708   0.192529 C.3        1 UNL1     0.1342
     3 C         -1.888091   -0.996579   -0.32474 C.3        1 UNL1     0.1174
     4 C         -2.746513   -2.078118   0.335944 C.3        1 UNL1     0.1456
     5 C         -2.57743   -2.1131   1.86583 C.3        1 UNL1     0.2326
     6 O         -1.204798   -2.307679   2.19883 O.3        1 UNL1     -0.3076
     7 O         -3.166987   -0.982742   2.533689 O.3        1 UNL1     -0.4605
     8 C         -3.668779   -1.221116   3.80054 C.ar        1 UNL1     0.1310
     9 C         -4.467634   -2.310643   4.163942 C.ar        1 UNL1     0.0226
     10 C         -4.913618   -2.473709   5.480912 C.ar        1 UNL1     0.1343
     11 C         -4.551445   -1.563018   6.472534 C.ar        1 UNL1     0.1007
     12 C         -3.788141   -0.448969   6.113306 C.ar        1 UNL1     0.1389
     13 C         -3.342033   -0.283823   4.788487 C.ar        1 UNL1     0.0229
     14 C         -4.924662   -1.73174   7.89605 C.2        1 UNL1     0.1740
     15 C         -4.26648   -0.785151   8.856421 C.3        1 UNL1     0.0520
     16 C         -4.2201   0.595548   8.216516 C.3        1 UNL1     0.1322
     17 O         -3.465267   0.564921   6.985111 O.3        1 UNL1     -0.4828
     18 C         -5.589993   1.268984   8.104265 C.ar        1 UNL1     -0.0067
     19 C         -5.974751   1.856524   6.881574 C.ar        1 UNL1     -0.0516
     20 C         -7.200481   2.521662   6.758526 C.ar        1 UNL1     -0.0198
     21 C         -8.045158   2.612311   7.850373 C.ar        1 UNL1     0.1169
     22 C         -7.708988   2.014967   9.058268 C.ar        1 UNL1     -0.0198
     23 C         -6.49153   1.333863   9.176373 C.ar        1 UNL1     -0.0516
     24 O         -9.213603   3.300456   7.703429 O.3        1 UNL1     -0.5068
     25 O         -5.658672   -2.62948   8.300743 O.2        1 UNL1     -0.2917
     26 O         -5.690777   -3.55734   5.769622 O.3        1 UNL1     -0.5058
     27 O         -0.194718   -0.2153   2.542767 O.3        1 UNL1     -0.3648
     28 O         0.299197   -1.943585   -0.586332 O.3        1 UNL1     -0.3841
     29 O         -2.469743   0.305382   -0.231419 O.3        1 UNL1     -0.3863
     30 O         -2.379904   -3.367644   -0.201095 O.3        1 UNL1     -0.3829
     31 H         0.684086   -1.843622   1.79828 H        1 UNL1     0.0937
     32 H         0.0   0.0   0.0 H        1 UNL1     0.0671
     33 H         -1.858404   -1.226562   -1.398959 H        1 UNL1     0.0649
     34 H         -3.802649   -1.917952   0.092378 H        1 UNL1     0.0683
     35 H         -3.111428   -3.02197   2.170264 H        1 UNL1     0.1085
     36 H         -4.737036   -3.082858   3.451745 H        1 UNL1     0.0691
     37 H         -2.749941   0.592705   4.534282 H        1 UNL1     0.0691
     38 H         -3.257665   -1.162696   9.054614 H        1 UNL1     0.0385
     39 H         -4.823396   -0.785871   9.799619 H        1 UNL1     0.0385
     40 H         -3.632449   1.241534   8.882766 H        1 UNL1     0.0789
     41 H         -5.325391   1.807038   6.01236 H        1 UNL1     0.0623
     42 H         -7.480554   2.980918   5.813722 H        1 UNL1     0.0654
     43 H         -8.369754   2.066953   9.915353 H        1 UNL1     0.0654
     44 H         -6.265855   0.869982   10.131742 H        1 UNL1     0.0623
     45 H         -9.001103   4.224972   7.496474 H        1 UNL1     0.2921
     46 H         -5.277351   -4.071668   6.480929 H        1 UNL1     0.2922
     47 H         0.521163   0.365295   2.249027 H        1 UNL1     0.2126
     48 H         1.239193   -1.832699   -0.345826 H        1 UNL1     0.2101
     49 H         -2.055144   0.899132   -0.877454 H        1 UNL1     0.2100
     50 H         -2.628551   -3.381417   -1.148564 H        1 UNL1     0.2102
@<TRIPOS>BOND
     1     1     2    1
     2     1     6    1
     3     2     3    1
     4     3     4    1
     5     3    29    1
     6     3    33    1
     7     4     5    1
     8     5     6    1
     9     5     7    1
    10     5    35    1
    11     7     8    1
    12     8     9   ar
    13     8    13   ar
    14     9    10   ar
    15     9    36    1
    16    10    11   ar
    17    10    26    1
    18    11    12   ar
    19    11    14    1
    20    12    13   ar
    21    12    17    1
    22    13    37    1
    23    14    15    1
    24    14    25    2
    25    15    16    1
    26    15    38    1
    27    15    39    1
    28    16    17    1
    29    16    18    1
    30    16    40    1
    31    18    19   ar
    32    18    23   ar
    33    19    20   ar
    34    19    41    1
    35    20    21   ar
    36    20    42    1
    37    21    22   ar
    38    21    24    1
    39    22    23   ar
    40    22    43    1
    41    23    44    1
    42    24    45    1
    43    26    46    1
    44    27    47    1
    45    28    48    1
    46    29    49    1
    47    30    50    1
    48     1    31    1
    49     1    27    1
    50     2    32    1
    51     2    28    1
    52     4    34    1
    53     4    30    1
