@<TRIPOS>MOLECULE
*****
 50 53 0 0 0
SMALL
GASTEIGER

@<TRIPOS>ATOM
     1 C         -0.369435   -1.398947   1.636237 C.3        1 UNL1     0.1889
     2 C         -0.487517   -0.971509   0.148522 C.3        1 UNL1     0.1342
     3 C         -1.926368   -0.896896   -0.384963 C.3        1 UNL1     0.1174
     4 C         -2.840767   -1.963451   0.222863 C.3        1 UNL1     0.1456
     5 C         -2.693283   -2.065541   1.751977 C.3        1 UNL1     0.2326
     6 O         -1.335155   -2.334726   2.092412 O.3        1 UNL1     -0.3076
     7 O         -3.240352   -0.936557   2.457264 O.3        1 UNL1     -0.4605
     8 C         -3.768692   -1.201141   3.708016 C.ar        1 UNL1     0.1310
     9 C         -4.611745   -2.272745   4.021429 C.ar        1 UNL1     0.0226
     10 C         -5.082309   -2.465955   5.325707 C.ar        1 UNL1     0.1343
     11 C         -4.701645   -1.605005   6.354153 C.ar        1 UNL1     0.1007
     12 C         -3.893286   -0.507751   6.045328 C.ar        1 UNL1     0.1389
     13 C         -3.42241   -0.312189   4.733283 C.ar        1 UNL1     0.0229
     14 C         -5.101239   -1.810326   7.76565 C.2        1 UNL1     0.1740
     15 C         -4.423039   -0.92331   8.768045 C.3        1 UNL1     0.0520
     16 C         -4.317324   0.476601   8.17895 C.3        1 UNL1     0.1322
     17 O         -3.546416   0.461965   6.957248 O.3        1 UNL1     -0.4828
     18 C         -5.660096   1.203565   8.073069 C.ar        1 UNL1     -0.0067
     19 C         -5.756382   2.369105   7.285377 C.ar        1 UNL1     -0.0516
     20 C         -6.957065   3.084541   7.204919 C.ar        1 UNL1     -0.0198
     21 C         -8.06405   2.649861   7.911647 C.ar        1 UNL1     0.1169
     22 C         -8.009754   1.487143   8.66926 C.ar        1 UNL1     -0.0198
     23 C         -6.814398   0.761309   8.735181 C.ar        1 UNL1     -0.0516
     24 O         -9.205284   3.393314   7.839106 O.3        1 UNL1     -0.5068
     25 O         -5.873128   -2.694246   8.128082 O.2        1 UNL1     -0.2917
     26 O         -5.90239   -3.529816   5.564979 O.3        1 UNL1     -0.5058
     27 O         -0.237125   -0.305072   2.529948 O.3        1 UNL1     -0.3648
     28 O         0.219623   -1.930824   -0.659173 O.3        1 UNL1     -0.3841
     29 O         -2.450417   0.425388   -0.24687 O.3        1 UNL1     -0.3863
     30 O         -2.525215   -3.246342   -0.360495 O.3        1 UNL1     -0.3829
     31 H         0.577619   -1.941217   1.731693 H        1 UNL1     0.0937
     32 H         0.0   0.0   0.0 H        1 UNL1     0.0671
     33 H         -1.893052   -1.086008   -1.467019 H        1 UNL1     0.0649
     34 H         -3.885441   -1.746393   -0.026021 H        1 UNL1     0.0683
     35 H         -3.27127   -2.960524   2.014304 H        1 UNL1     0.1085
     36 H         -4.898711   -3.00874   3.278406 H        1 UNL1     0.0691
     37 H         -2.795273   0.550426   4.518603 H        1 UNL1     0.0691
     38 H         -3.431565   -1.344531   8.965725 H        1 UNL1     0.0385
     39 H         -4.993163   -0.937029   9.703218 H        1 UNL1     0.0385
     40 H         -3.716275   1.07645   8.875686 H        1 UNL1     0.0789
     41 H         -4.899179   2.736039   6.72841 H        1 UNL1     0.0623
     42 H         -7.015333   3.988432   6.60359 H        1 UNL1     0.0654
     43 H         -8.874932   1.129476   9.214652 H        1 UNL1     0.0654
     44 H         -6.810814   -0.148215   9.328137 H        1 UNL1     0.0623
     45 H         -9.035751   4.256351   8.250377 H        1 UNL1     0.2921
     46 H         -5.529357   -4.071916   6.277992 H        1 UNL1     0.2922
     47 H         0.507739   0.253589   2.267392 H        1 UNL1     0.2126
     48 H         1.171847   -1.778767   -0.504637 H        1 UNL1     0.2101
     49 H         -2.135325   0.983058   -0.975921 H        1 UNL1     0.2100
     50 H         -2.782872   -3.219523   -1.305273 H        1 UNL1     0.2102
@<TRIPOS>BOND
     1     1     2    1
     2     1     6    1
     3     2     3    1
     4     3     4    1
     5     3    29    1
     6     3    33    1
     7     4     5    1
     8     5     6    1
     9     5     7    1
    10     5    35    1
    11     7     8    1
    12     8     9   ar
    13     8    13   ar
    14     9    10   ar
    15     9    36    1
    16    10    11   ar
    17    10    26    1
    18    11    12   ar
    19    11    14    1
    20    12    13   ar
    21    12    17    1
    22    13    37    1
    23    14    15    1
    24    14    25    2
    25    15    16    1
    26    15    38    1
    27    15    39    1
    28    16    17    1
    29    16    18    1
    30    16    40    1
    31    18    19   ar
    32    18    23   ar
    33    19    20   ar
    34    19    41    1
    35    20    21   ar
    36    20    42    1
    37    21    22   ar
    38    21    24    1
    39    22    23   ar
    40    22    43    1
    41    23    44    1
    42    24    45    1
    43    26    46    1
    44    27    47    1
    45    28    48    1
    46    29    49    1
    47    30    50    1
    48     1    31    1
    49     1    27    1
    50     2    32    1
    51     2    28    1
    52     4    34    1
    53     4    30    1
