@<TRIPOS>MOLECULE
*****
 50 53 0 0 0
SMALL
GASTEIGER

@<TRIPOS>ATOM
     1 C         -0.335236   -1.330369   1.69957 C.3        1 UNL1     0.1889
     2 C         -0.464016   -0.975017   0.193887 C.3        1 UNL1     0.1342
     3 C         -1.904413   -0.959603   -0.34042 C.3        1 UNL1     0.1174
     4 C         -2.792761   -2.018561   0.317276 C.3        1 UNL1     0.1456
     5 C         -2.642382   -2.04639   1.84926 C.3        1 UNL1     0.2326
     6 O         -1.278077   -2.266959   2.199816 O.3        1 UNL1     -0.3076
     7 O         -3.216161   -0.899481   2.502481 O.3        1 UNL1     -0.4605
     8 C         -3.727415   -1.116142   3.769448 C.ar        1 UNL1     0.1310
     9 C         -4.544315   -2.189411   4.141021 C.ar        1 UNL1     0.0226
     10 C         -4.998867   -2.331059   5.45754 C.ar        1 UNL1     0.1343
     11 C         -4.627632   -1.414921   6.440757 C.ar        1 UNL1     0.1007
     12 C         -3.845928   -0.316552   6.072914 C.ar        1 UNL1     0.1389
     13 C         -3.391185   -0.172914   4.748524 C.ar        1 UNL1     0.0229
     14 C         -5.010009   -1.56213   7.864229 C.2        1 UNL1     0.1740
     15 C         -4.342115   -0.614899   8.817235 C.3        1 UNL1     0.0520
     16 C         -4.271907   0.757726   8.162308 C.3        1 UNL1     0.1322
     17 O         -3.511869   0.702024   6.93499 O.3        1 UNL1     -0.4828
     18 C         -5.630939   1.450397   8.035967 C.ar        1 UNL1     -0.0067
     19 C         -6.007328   2.016933   6.800822 C.ar        1 UNL1     -0.0516
     20 C         -7.222358   2.698759   6.663793 C.ar        1 UNL1     -0.0198
     21 C         -8.064502   2.826984   7.753829 C.ar        1 UNL1     0.1169
     22 C         -7.736865   2.251101   8.974424 C.ar        1 UNL1     -0.0198
     23 C         -6.530366   1.553337   9.106868 C.ar        1 UNL1     -0.0516
     24 O         -9.221908   3.530364   7.592371 O.3        1 UNL1     -0.5068
     25 O         -5.759371   -2.44416   8.27528 O.2        1 UNL1     -0.2917
     26 O         -5.793635   -3.399593   5.754465 O.3        1 UNL1     -0.5058
     27 O         -0.228929   -0.193548   2.541665 O.3        1 UNL1     -0.3648
     28 O         0.265683   -1.953379   -0.56969 O.3        1 UNL1     -0.3841
     29 O         -2.459998   0.354712   -0.262741 O.3        1 UNL1     -0.3863
     30 O         -2.446701   -3.319086   -0.206714 O.3        1 UNL1     -0.3829
     31 H         0.624588   -1.844811   1.818595 H        1 UNL1     0.0937
     32 H         0.0   0.0   0.0 H        1 UNL1     0.0671
     33 H         -1.866914   -1.197613   -1.412644 H        1 UNL1     0.0649
     34 H         -3.842422   -1.838312   0.060132 H        1 UNL1     0.0683
     35 H         -3.198642   -2.941899   2.153429 H        1 UNL1     0.1085
     36 H         -4.822008   -2.965379   3.436123 H        1 UNL1     0.0691
     37 H         -2.784748   0.69172   4.487498 H        1 UNL1     0.0691
     38 H         -3.340052   -1.005342   9.024484 H        1 UNL1     0.0385
     39 H         -4.903385   -0.596729   9.757673 H        1 UNL1     0.0385
     40 H         -3.677697   1.402188   8.824201 H        1 UNL1     0.0789
     41 H         -5.359619   1.937895   5.932562 H        1 UNL1     0.0623
     42 H         -7.495883   3.141507   5.709241 H        1 UNL1     0.0654
     43 H         -8.395951   2.332552   9.830509 H        1 UNL1     0.0654
     44 H         -6.311298   1.107071   10.072115 H        1 UNL1     0.0623
     45 H         -8.995243   4.44021   7.340338 H        1 UNL1     0.2921
     46 H         -5.390659   -3.912895   6.472479 H        1 UNL1     0.2922
     47 H         0.51338   0.360936   2.263486 H        1 UNL1     0.2126
     48 H         1.199431   -1.88542   -0.291788 H        1 UNL1     0.2101
     49 H         -2.019907   0.937345   -0.902 H        1 UNL1     0.2100
     50 H         -2.679236   -3.332386   -1.158272 H        1 UNL1     0.2102
@<TRIPOS>BOND
     1     1     2    1
     2     1     6    1
     3     2     3    1
     4     3     4    1
     5     3    29    1
     6     3    33    1
     7     4     5    1
     8     5     6    1
     9     5     7    1
    10     5    35    1
    11     7     8    1
    12     8     9   ar
    13     8    13   ar
    14     9    10   ar
    15     9    36    1
    16    10    11   ar
    17    10    26    1
    18    11    12   ar
    19    11    14    1
    20    12    13   ar
    21    12    17    1
    22    13    37    1
    23    14    15    1
    24    14    25    2
    25    15    16    1
    26    15    38    1
    27    15    39    1
    28    16    17    1
    29    16    18    1
    30    16    40    1
    31    18    19   ar
    32    18    23   ar
    33    19    20   ar
    34    19    41    1
    35    20    21   ar
    36    20    42    1
    37    21    22   ar
    38    21    24    1
    39    22    23   ar
    40    22    43    1
    41    23    44    1
    42    24    45    1
    43    26    46    1
    44    27    47    1
    45    28    48    1
    46    29    49    1
    47    30    50    1
    48     1    31    1
    49     1    27    1
    50     2    32    1
    51     2    28    1
    52     4    34    1
    53     4    30    1
