@<TRIPOS>MOLECULE
*****
 50 53 0 0 0
SMALL
GASTEIGER

@<TRIPOS>ATOM
     1 C         -0.296502   -1.311553   1.721256 C.3        1 UNL1     0.1889
     2 C         -0.443229   -0.980993   0.211573 C.3        1 UNL1     0.1342
     3 C         -1.887497   -1.001762   -0.311995 C.3        1 UNL1     0.1174
     4 C         -2.749931   -2.068188   0.367755 C.3        1 UNL1     0.1456
     5 C         -2.587893   -2.070513   1.898801 C.3        1 UNL1     0.2326
     6 O         -1.21698   -2.259036   2.242206 O.3        1 UNL1     -0.3076
     7 O         -3.179465   -0.925619   2.539566 O.3        1 UNL1     -0.4605
     8 C         -3.677108   -1.133624   3.813385 C.ar        1 UNL1     0.1310
     9 C         -4.471348   -2.216259   4.206304 C.ar        1 UNL1     0.0226
     10 C         -4.913304   -2.347536   5.528176 C.ar        1 UNL1     0.1343
     11 C         -4.551564   -1.410953   6.495542 C.ar        1 UNL1     0.1007
     12 C         -3.792946   -0.303815   6.106274 C.ar        1 UNL1     0.1389
     13 C         -3.350895   -0.170657   4.776503 C.ar        1 UNL1     0.0229
     14 C         -4.920453   -1.544958   7.923869 C.2        1 UNL1     0.1740
     15 C         -4.26291   -0.572304   8.858284 C.3        1 UNL1     0.0520
     16 C         -4.222844   0.791968   8.183663 C.3        1 UNL1     0.1322
     17 O         -3.471168   0.732785   6.951369 O.3        1 UNL1     -0.4828
     18 C         -5.595277   1.457862   8.058209 C.ar        1 UNL1     -0.0067
     19 C         -5.991286   1.999899   6.818215 C.ar        1 UNL1     -0.0516
     20 C         -7.219626   2.657428   6.681105 C.ar        1 UNL1     -0.0198
     21 C         -8.055757   2.785674   7.775758 C.ar        1 UNL1     0.1169
     22 C         -7.708427   2.233196   9.001715 C.ar        1 UNL1     -0.0198
     23 C         -6.488359   1.559513   9.13453 C.ar        1 UNL1     -0.0516
     24 O         -9.227063   3.465457   7.613473 O.3        1 UNL1     -0.5068
     25 O         -5.650381   -2.434614   8.353056 O.2        1 UNL1     -0.2917
     26 O         -5.686063   -3.426088   5.846219 O.3        1 UNL1     -0.5058
     27 O         -0.206566   -0.160595   2.545874 O.3        1 UNL1     -0.3648
     28 O         0.300096   -1.955949   -0.543168 O.3        1 UNL1     -0.3841
     29 O         -2.468375   0.302377   -0.24927 O.3        1 UNL1     -0.3863
     30 O         -2.382049   -3.369228   -0.139837 O.3        1 UNL1     -0.3829
     31 H         0.674145   -1.805218   1.8405 H        1 UNL1     0.0937
     32 H         0.0   0.0   0.0 H        1 UNL1     0.0671
     33 H         -1.8531   -1.254738   -1.380891 H        1 UNL1     0.0649
     34 H         -3.804792   -1.912413   0.115957 H        1 UNL1     0.0683
     35 H         -3.124114   -2.972212   2.22018 H        1 UNL1     0.1085
     36 H         -4.740043   -3.007064   3.51453 H        1 UNL1     0.0691
     37 H         -2.762415   0.701122   4.498677 H        1 UNL1     0.0691
     38 H         -3.252317   -0.941421   9.063178 H        1 UNL1     0.0385
     39 H         -4.817328   -0.551075   9.802714 H        1 UNL1     0.0385
     40 H         -3.635603   1.45647   8.831818 H        1 UNL1     0.0789
     41 H         -5.348786   1.920417   5.946133 H        1 UNL1     0.0623
     42 H         -7.508407   3.081558   5.722601 H        1 UNL1     0.0654
     43 H         -8.362437   2.314711   9.861678 H        1 UNL1     0.0654
     44 H         -6.253878   1.131023   10.1042 H        1 UNL1     0.0623
     45 H         -9.019203   4.37406   7.341533 H        1 UNL1     0.2921
     46 H         -5.268341   -3.921739   6.568196 H        1 UNL1     0.2922
     47 H         0.524324   0.402865   2.255749 H        1 UNL1     0.2126
     48 H         1.233469   -1.869429   -0.269194 H        1 UNL1     0.2101
     49 H         -2.044549   0.884081   -0.900258 H        1 UNL1     0.2100
     50 H         -2.621191   -3.401096   -1.089314 H        1 UNL1     0.2102
@<TRIPOS>BOND
     1     1     2    1
     2     1     6    1
     3     2     3    1
     4     3     4    1
     5     3    29    1
     6     3    33    1
     7     4     5    1
     8     5     6    1
     9     5     7    1
    10     5    35    1
    11     7     8    1
    12     8     9   ar
    13     8    13   ar
    14     9    10   ar
    15     9    36    1
    16    10    11   ar
    17    10    26    1
    18    11    12   ar
    19    11    14    1
    20    12    13   ar
    21    12    17    1
    22    13    37    1
    23    14    15    1
    24    14    25    2
    25    15    16    1
    26    15    38    1
    27    15    39    1
    28    16    17    1
    29    16    18    1
    30    16    40    1
    31    18    19   ar
    32    18    23   ar
    33    19    20   ar
    34    19    41    1
    35    20    21   ar
    36    20    42    1
    37    21    22   ar
    38    21    24    1
    39    22    23   ar
    40    22    43    1
    41    23    44    1
    42    24    45    1
    43    26    46    1
    44    27    47    1
    45    28    48    1
    46    29    49    1
    47    30    50    1
    48     1    31    1
    49     1    27    1
    50     2    32    1
    51     2    28    1
    52     4    34    1
    53     4    30    1
