@<TRIPOS>MOLECULE
*****
 50 53 0 0 0
SMALL
GASTEIGER

@<TRIPOS>ATOM
     1 C         -0.10398   -1.045252   1.915057 C.3        1 UNL1     0.1889
     2 C         -0.569738   -0.821857   0.451122 C.3        1 UNL1     0.1342
     3 C         -2.071127   -0.537156   0.292246 C.3        1 UNL1     0.1174
     4 C         -2.930058   -1.299045   1.30461 C.3        1 UNL1     0.1456
     5 C         -2.374514   -1.207151   2.737541 C.3        1 UNL1     0.2326
     6 O         -1.034111   -1.691976   2.77121 O.3        1 UNL1     -0.3076
     7 O         -2.518963   0.098421   3.325704 O.3        1 UNL1     -0.4605
     8 C         -2.703202   0.128823   4.696346 C.ar        1 UNL1     0.1310
     9 C         -3.583078   -0.688518   5.414032 C.ar        1 UNL1     0.0226
     10 C         -3.685908   -0.59352   6.80698 C.ar        1 UNL1     0.1343
     11 C         -2.893218   0.305534   7.519149 C.ar        1 UNL1     0.1007
     12 C         -2.040655   1.155573   6.809675 C.ar        1 UNL1     0.1389
     13 C         -1.93937   1.061691   5.408833 C.ar        1 UNL1     0.0229
     14 C         -2.900321   0.389153   8.998038 C.2        1 UNL1     0.1740
     15 C         -1.829829   1.247789   9.604949 C.3        1 UNL1     0.0520
     16 C         -1.672156   2.497565   8.749872 C.3        1 UNL1     0.1322
     17 O         -1.295619   2.150497   7.399008 O.3        1 UNL1     -0.4828
     18 C         -2.853252   3.465891   8.85028 C.ar        1 UNL1     -0.0067
     19 C         -3.420124   3.991412   7.671002 C.ar        1 UNL1     -0.0516
     20 C         -4.470057   4.915681   7.728704 C.ar        1 UNL1     -0.0198
     21 C         -4.955993   5.327056   8.956899 C.ar        1 UNL1     0.1169
     22 C         -4.440832   4.802215   10.135029 C.ar        1 UNL1     -0.0198
     23 C         -3.403294   3.864011   10.077207 C.ar        1 UNL1     -0.0516
     24 O         -5.95361   6.257031   8.974447 O.3        1 UNL1     -0.5068
     25 O         -3.668636   -0.254447   9.707936 O.2        1 UNL1     -0.2917
     26 O         -4.56403   -1.41861   7.447069 O.3        1 UNL1     -0.5058
     27 O         0.442579   0.116859   2.518015 O.3        1 UNL1     -0.3648
     28 O         -0.276431   -2.009988   -0.30718 O.3        1 UNL1     -0.3841
     29 O         -2.324042   0.869299   0.299322 O.3        1 UNL1     -0.3863
     30 O         -2.994165   -2.689605   0.920004 O.3        1 UNL1     -0.3829
     31 H         0.73587   -1.747332   1.872446 H        1 UNL1     0.0937
     32 H         0.0   0.0   0.0 H        1 UNL1     0.0671
     33 H         -2.374269   -0.883097   -0.705827 H        1 UNL1     0.0649
     34 H         -3.955888   -0.914556   1.289088 H        1 UNL1     0.0683
     35 H         -2.985959   -1.920262   3.304539 H        1 UNL1     0.1085
     36 H         -4.185478   -1.445888   4.924518 H        1 UNL1     0.0691
     37 H         -1.268984   1.735662   4.879835 H        1 UNL1     0.0691
     38 H         -0.904898   0.661491   9.621799 H        1 UNL1     0.0385
     39 H         -2.10321   1.485175   10.638723 H        1 UNL1     0.0385
     40 H         -0.808324   3.05122   9.14202 H        1 UNL1     0.0789
     41 H         -3.050337   3.691368   6.694845 H        1 UNL1     0.0623
     42 H         -4.89078   5.322655   6.812529 H        1 UNL1     0.0654
     43 H         -4.824075   5.106098   11.101823 H        1 UNL1     0.0654
     44 H         -3.031932   3.466895   11.017013 H        1 UNL1     0.0623
     45 H         -5.625356   7.066958   8.551383 H        1 UNL1     0.2921
     46 H         -4.095457   -1.920394   8.132681 H        1 UNL1     0.2922
     47 H         1.167272   0.464197   1.979466 H        1 UNL1     0.2126
     48 H         0.694087   -2.1179   -0.29372 H        1 UNL1     0.2101
     49 H         -1.980609   1.270462   -0.514874 H        1 UNL1     0.2100
     50 H         -3.481156   -2.745697   0.071827 H        1 UNL1     0.2102
@<TRIPOS>BOND
     1     1     2    1
     2     1     6    1
     3     2     3    1
     4     3     4    1
     5     3    29    1
     6     3    33    1
     7     4     5    1
     8     5     6    1
     9     5     7    1
    10     5    35    1
    11     7     8    1
    12     8     9   ar
    13     8    13   ar
    14     9    10   ar
    15     9    36    1
    16    10    11   ar
    17    10    26    1
    18    11    12   ar
    19    11    14    1
    20    12    13   ar
    21    12    17    1
    22    13    37    1
    23    14    15    1
    24    14    25    2
    25    15    16    1
    26    15    38    1
    27    15    39    1
    28    16    17    1
    29    16    18    1
    30    16    40    1
    31    18    19   ar
    32    18    23   ar
    33    19    20   ar
    34    19    41    1
    35    20    21   ar
    36    20    42    1
    37    21    22   ar
    38    21    24    1
    39    22    23   ar
    40    22    43    1
    41    23    44    1
    42    24    45    1
    43    26    46    1
    44    27    47    1
    45    28    48    1
    46    29    49    1
    47    30    50    1
    48     1    31    1
    49     1    27    1
    50     2    32    1
    51     2    28    1
    52     4    34    1
    53     4    30    1
