@<TRIPOS>MOLECULE
*****
 50 53 0 0 0
SMALL
GASTEIGER

@<TRIPOS>ATOM
     1 C         -0.752233   -1.572639   1.315962 C.3        1 UNL1     0.1889
     2 C         -0.677342   -0.8608   -0.061578 C.3        1 UNL1     0.1342
     3 C         -2.031765   -0.393975   -0.616625 C.3        1 UNL1     0.1174
     4 C         -3.1782   -1.343804   -0.260773 C.3        1 UNL1     0.1456
     5 C         -3.163733   -1.756808   1.222325 C.3        1 UNL1     0.2326
     6 O         -1.912418   -2.358045   1.547274 O.3        1 UNL1     -0.3076
     7 O         -3.528865   -0.690891   2.11777 O.3        1 UNL1     -0.4605
     8 C         -4.883978   -0.444585   2.246342 C.ar        1 UNL1     0.1310
     9 C         -5.895528   -1.077614   1.51604 C.ar        1 UNL1     0.0226
     10 C         -7.244284   -0.770521   1.731571 C.ar        1 UNL1     0.1343
     11 C         -7.615826   0.160757   2.700342 C.ar        1 UNL1     0.1007
     12 C         -6.612789   0.829324   3.407251 C.ar        1 UNL1     0.1389
     13 C         -5.256581   0.522283   3.188495 C.ar        1 UNL1     0.0229
     14 C         -9.028673   0.462021   3.027844 C.2        1 UNL1     0.1740
     15 C         -9.24572   1.316742   4.241883 C.3        1 UNL1     0.0520
     16 C         -8.1872   2.410948   4.256249 C.3        1 UNL1     0.1322
     17 O         -6.860801   1.840643   4.306134 O.3        1 UNL1     -0.4828
     18 C         -8.381607   3.47063   3.16905 C.ar        1 UNL1     -0.0067
     19 C         -9.646919   4.071008   3.005509 C.ar        1 UNL1     -0.0516
     20 C         -9.871241   5.008792   1.990521 C.ar        1 UNL1     -0.0198
     21 C         -8.842736   5.348411   1.129903 C.ar        1 UNL1     0.1169
     22 C         -7.576733   4.799305   1.286617 C.ar        1 UNL1     -0.0198
     23 C         -7.347234   3.875295   2.313064 C.ar        1 UNL1     -0.0516
     24 O         -9.108706   6.236952   0.129825 O.3        1 UNL1     -0.5068
     25 O         -9.980861   -0.00933   2.411684 O.2        1 UNL1     -0.2917
     26 O         -8.181946   -1.422778   0.98529 O.3        1 UNL1     -0.5058
     27 O         -0.473268   -0.715214   2.411311 O.3        1 UNL1     -0.3648
     28 O         -0.115136   -1.777557   -1.018755 O.3        1 UNL1     -0.3841
     29 O         -2.295869   0.95849   -0.23818 O.3        1 UNL1     -0.3863
     30 O         -3.078345   -2.532679   -1.074587 O.3        1 UNL1     -0.3829
     31 H         0.061249   -2.306131   1.333692 H        1 UNL1     0.0937
     32 H         0.0   0.0   0.0 H        1 UNL1     0.0671
     33 H         -1.958409   -0.38113   -1.713062 H        1 UNL1     0.0649
     34 H         -4.139691   -0.874138   -0.496038 H        1 UNL1     0.0683
     35 H         -3.922784   -2.546663   1.284372 H        1 UNL1     0.1085
     36 H         -5.674898   -1.850814   0.7883 H        1 UNL1     0.0691
     37 H         -4.494797   1.057743   3.751044 H        1 UNL1     0.0691
     38 H         -9.157811   0.670605   5.12183 H        1 UNL1     0.0385
     39 H         -10.262139   1.724231   4.216914 H        1 UNL1     0.0385
     40 H         -8.290699   2.948973   5.208266 H        1 UNL1     0.0789
     41 H         -10.473019   3.814506   3.662333 H        1 UNL1     0.0623
     42 H         -10.854568   5.455858   1.867182 H        1 UNL1     0.0654
     43 H         -6.760218   5.069484   0.627666 H        1 UNL1     0.0654
     44 H         -6.34324   3.474214   2.412939 H        1 UNL1     0.0623
     45 H         -8.375464   6.871475   0.080292 H        1 UNL1     0.2921
     46 H         -7.740712   -2.027061   0.367579 H        1 UNL1     0.2922
     47 H         -1.118982   0.004298   2.446198 H        1 UNL1     0.2126
     48 H         -0.644649   -1.689683   -1.834614 H        1 UNL1     0.2101
     49 H         -3.190328   1.210725   -0.517667 H        1 UNL1     0.2100
     50 H         -3.415168   -2.315341   -1.968471 H        1 UNL1     0.2102
@<TRIPOS>BOND
     1     1     2    1
     2     1     6    1
     3     2     3    1
     4     3     4    1
     5     3    29    1
     6     3    33    1
     7     4     5    1
     8     5     6    1
     9     5     7    1
    10     5    35    1
    11     7     8    1
    12     8     9   ar
    13     8    13   ar
    14     9    10   ar
    15     9    36    1
    16    10    11   ar
    17    10    26    1
    18    11    12   ar
    19    11    14    1
    20    12    13   ar
    21    12    17    1
    22    13    37    1
    23    14    15    1
    24    14    25    2
    25    15    16    1
    26    15    38    1
    27    15    39    1
    28    16    17    1
    29    16    18    1
    30    16    40    1
    31    18    19   ar
    32    18    23   ar
    33    19    20   ar
    34    19    41    1
    35    20    21   ar
    36    20    42    1
    37    21    22   ar
    38    21    24    1
    39    22    23   ar
    40    22    43    1
    41    23    44    1
    42    24    45    1
    43    26    46    1
    44    27    47    1
    45    28    48    1
    46    29    49    1
    47    30    50    1
    48     1    31    1
    49     1    27    1
    50     2    32    1
    51     2    28    1
    52     4    34    1
    53     4    30    1
