@<TRIPOS>MOLECULE
*****
 50 53 0 0 0
SMALL
GASTEIGER

@<TRIPOS>ATOM
     1 C         -0.145347   0.902737   1.983619 C.3        1 UNL1     0.1889
     2 C         0.366114   -0.197454   1.015152 C.3        1 UNL1     0.1342
     3 C         -0.014459   -1.631224   1.415065 C.3        1 UNL1     0.1174
     4 C         -0.036663   -1.838318   2.931554 C.3        1 UNL1     0.1456
     5 C         -0.782497   -0.712041   3.670198 C.3        1 UNL1     0.2326
     6 O         -0.192713   0.547878   3.357747 O.3        1 UNL1     -0.3076
     7 O         -2.206717   -0.736706   3.46451 O.3        1 UNL1     -0.4605
     8 C         -2.979576   -0.288097   4.52043 C.ar        1 UNL1     0.1310
     9 C         -2.801375   -0.641099   5.862419 C.ar        1 UNL1     0.0226
     10 C         -3.628096   -0.118609   6.864137 C.ar        1 UNL1     0.1343
     11 C         -4.638977   0.78897   6.550668 C.ar        1 UNL1     0.1007
     12 C         -4.852915   1.117374   5.209339 C.ar        1 UNL1     0.1389
     13 C         -4.023208   0.589831   4.202008 C.ar        1 UNL1     0.0229
     14 C         -5.487227   1.436162   7.578174 C.2        1 UNL1     0.1740
     15 C         -6.36802   2.547316   7.087165 C.3        1 UNL1     0.0520
     16 C         -6.942736   2.14524   5.735872 C.3        1 UNL1     0.1322
     17 O         -5.8866   1.915553   4.777284 O.3        1 UNL1     -0.4828
     18 C         -7.980842   1.023417   5.816955 C.ar        1 UNL1     -0.0067
     19 C         -8.721246   0.680561   4.66697 C.ar        1 UNL1     -0.0516
     20 C         -9.711302   -0.307928   4.718359 C.ar        1 UNL1     -0.0198
     21 C         -9.974942   -0.954262   5.912751 C.ar        1 UNL1     0.1169
     22 C         -9.239707   -0.662166   7.054219 C.ar        1 UNL1     -0.0198
     23 C         -8.236975   0.313283   6.998691 C.ar        1 UNL1     -0.0516
     24 O         -10.972204   -1.884553   5.933433 O.3        1 UNL1     -0.5068
     25 O         -5.434094   1.156436   8.772919 O.2        1 UNL1     -0.2917
     26 O         -3.402367   -0.503922   8.153387 O.3        1 UNL1     -0.5058
     27 O         -1.353377   1.513176   1.558397 O.3        1 UNL1     -0.3648
     28 O         1.803625   -0.132684   0.969617 O.3        1 UNL1     -0.3841
     29 O         -1.234416   -2.026598   0.784577 O.3        1 UNL1     -0.3863
     30 O         1.32057   -1.895462   3.421802 O.3        1 UNL1     -0.3829
     31 H         0.591318   1.712987   1.953649 H        1 UNL1     0.0937
     32 H         0.0   0.0   0.0 H        1 UNL1     0.0671
     33 H         0.753811   -2.306554   1.013305 H        1 UNL1     0.0649
     34 H         -0.504676   -2.799602   3.170921 H        1 UNL1     0.0683
     35 H         -0.574582   -0.907577   4.72964 H        1 UNL1     0.1085
     36 H         -1.998201   -1.298247   6.177361 H        1 UNL1     0.0691
     37 H         -4.211272   0.860324   3.165206 H        1 UNL1     0.0691
     38 H         -5.749379   3.447007   7.001339 H        1 UNL1     0.0385
     39 H         -7.150431   2.739712   7.829186 H        1 UNL1     0.0385
     40 H         -7.485543   3.015621   5.34304 H        1 UNL1     0.0789
     41 H         -8.539602   1.179683   3.719587 H        1 UNL1     0.0623
     42 H         -10.28359   -0.55497   3.82759 H        1 UNL1     0.0654
     43 H         -9.427651   -1.172859   7.991118 H        1 UNL1     0.0654
     44 H         -7.675023   0.50856   7.906944 H        1 UNL1     0.0623
     45 H         -11.556811   -1.724384   5.174949 H        1 UNL1     0.2921
     46 H         -3.53737   0.252742   8.74554 H        1 UNL1     0.2922
     47 H         -1.705422   2.081639   2.257521 H        1 UNL1     0.2126
     48 H         2.031502   0.670708   0.463292 H        1 UNL1     0.2101
     49 H         -1.975873   -1.913653   1.400434 H        1 UNL1     0.2100
     50 H         1.732603   -2.713355   3.073961 H        1 UNL1     0.2102
@<TRIPOS>BOND
     1     1     2    1
     2     1     6    1
     3     2     3    1
     4     3     4    1
     5     3    29    1
     6     3    33    1
     7     4     5    1
     8     5     6    1
     9     5     7    1
    10     5    35    1
    11     7     8    1
    12     8     9   ar
    13     8    13   ar
    14     9    10   ar
    15     9    36    1
    16    10    11   ar
    17    10    26    1
    18    11    12   ar
    19    11    14    1
    20    12    13   ar
    21    12    17    1
    22    13    37    1
    23    14    15    1
    24    14    25    2
    25    15    16    1
    26    15    38    1
    27    15    39    1
    28    16    17    1
    29    16    18    1
    30    16    40    1
    31    18    19   ar
    32    18    23   ar
    33    19    20   ar
    34    19    41    1
    35    20    21   ar
    36    20    42    1
    37    21    22   ar
    38    21    24    1
    39    22    23   ar
    40    22    43    1
    41    23    44    1
    42    24    45    1
    43    26    46    1
    44    27    47    1
    45    28    48    1
    46    29    49    1
    47    30    50    1
    48     1    31    1
    49     1    27    1
    50     2    32    1
    51     2    28    1
    52     4    34    1
    53     4    30    1
