@<TRIPOS>MOLECULE
*****
 50 53 0 0 0
SMALL
GASTEIGER

@<TRIPOS>ATOM
     1 C         -0.389915   -1.35429   1.668733 C.3        1 UNL1     0.1889
     2 C         -0.492474   -0.965595   0.169287 C.3        1 UNL1     0.1342
     3 C         -1.925977   -0.900032   -0.37956 C.3        1 UNL1     0.1174
     4 C         -2.849965   -1.947127   0.247302 C.3        1 UNL1     0.1456
     5 C         -2.717193   -2.009604   1.779892 C.3        1 UNL1     0.2326
     6 O         -1.363318   -2.274453   2.140094 O.3        1 UNL1     -0.3076
     7 O         -3.266671   -0.860639   2.45017 O.3        1 UNL1     -0.4605
     8 C         -3.797481   -1.088409   3.707106 C.ar        1 UNL1     0.1310
     9 C         -4.648695   -2.145079   4.047966 C.ar        1 UNL1     0.0226
     10 C         -5.121215   -2.300533   5.356576 C.ar        1 UNL1     0.1343
     11 C         -4.734493   -1.415833   6.362356 C.ar        1 UNL1     0.1007
     12 C         -3.917781   -0.333142   6.025391 C.ar        1 UNL1     0.1389
     13 C         -3.444928   -0.175543   4.708955 C.ar        1 UNL1     0.0229
     14 C         -5.136179   -1.58112   7.778507 C.2        1 UNL1     0.1740
     15 C         -4.451723   -0.673279   8.757738 C.3        1 UNL1     0.0520
     16 C         -4.335248   0.709894   8.13226 C.3        1 UNL1     0.1322
     17 O         -3.563988   0.657487   6.911817 O.3        1 UNL1     -0.4828
     18 C         -5.672472   1.443898   8.006587 C.ar        1 UNL1     -0.0067
     19 C         -6.019221   2.04626   6.779746 C.ar        1 UNL1     -0.0516
     20 C         -7.212706   2.765494   6.644622 C.ar        1 UNL1     -0.0198
     21 C         -8.062486   2.895561   7.728497 C.ar        1 UNL1     0.1169
     22 C         -7.764577   2.285561   8.940103 C.ar        1 UNL1     -0.0198
     23 C         -6.580026   1.550739   9.070225 C.ar        1 UNL1     -0.0516
     24 O         -9.197494   3.635175   7.569983 O.3        1 UNL1     -0.5068
     25 O         -5.914839   -2.449427   8.163498 O.2        1 UNL1     -0.2917
     26 O         -5.94937   -3.351577   5.623131 O.3        1 UNL1     -0.5058
     27 O         -0.261943   -0.237825   2.534711 O.3        1 UNL1     -0.3648
     28 O         0.218654   -1.948187   -0.606288 O.3        1 UNL1     -0.3841
     29 O         -2.446408   0.427217   -0.281099 O.3        1 UNL1     -0.3863
     30 O         -2.533704   -3.245951   -0.299256 O.3        1 UNL1     -0.3829
     31 H         0.554193   -1.897133   1.787311 H        1 UNL1     0.0937
     32 H         0.0   0.0   0.0 H        1 UNL1     0.0671
     33 H         -1.883224   -1.11756   -1.455931 H        1 UNL1     0.0649
     34 H         -3.891452   -1.733067   -0.017055 H        1 UNL1     0.0683
     35 H         -3.300915   -2.895405   2.06008 H        1 UNL1     0.1085
     36 H         -4.940894   -2.8981   3.324296 H        1 UNL1     0.0691
     37 H         -2.811236   0.676422   4.472138 H        1 UNL1     0.0691
     38 H         -3.463524   -1.096614   8.966966 H        1 UNL1     0.0385
     39 H         -5.022304   -0.658227   9.692612 H        1 UNL1     0.0385
     40 H         -3.72998   1.32325   8.813409 H        1 UNL1     0.0789
     41 H         -5.364758   1.966406   5.91664 H        1 UNL1     0.0623
     42 H         -7.463192   3.235425   5.696765 H        1 UNL1     0.0654
     43 H         -8.430211   2.368405   9.790972 H        1 UNL1     0.0654
     44 H         -6.384187   1.078643   10.028148 H        1 UNL1     0.0623
     45 H         -8.942199   4.543086   7.339247 H        1 UNL1     0.2921
     46 H         -5.569653   -3.890123   6.335308 H        1 UNL1     0.2922
     47 H         0.498183   0.301527   2.275544 H        1 UNL1     0.2126
     48 H         1.150804   -1.911416   -0.317365 H        1 UNL1     0.2101
     49 H         -1.983648   1.010188   -0.903829 H        1 UNL1     0.2100
     50 H         -2.756076   -3.233897   -1.253257 H        1 UNL1     0.2102
@<TRIPOS>BOND
     1     1     2    1
     2     1     6    1
     3     2     3    1
     4     3     4    1
     5     3    29    1
     6     3    33    1
     7     4     5    1
     8     5     6    1
     9     5     7    1
    10     5    35    1
    11     7     8    1
    12     8     9   ar
    13     8    13   ar
    14     9    10   ar
    15     9    36    1
    16    10    11   ar
    17    10    26    1
    18    11    12   ar
    19    11    14    1
    20    12    13   ar
    21    12    17    1
    22    13    37    1
    23    14    15    1
    24    14    25    2
    25    15    16    1
    26    15    38    1
    27    15    39    1
    28    16    17    1
    29    16    18    1
    30    16    40    1
    31    18    19   ar
    32    18    23   ar
    33    19    20   ar
    34    19    41    1
    35    20    21   ar
    36    20    42    1
    37    21    22   ar
    38    21    24    1
    39    22    23   ar
    40    22    43    1
    41    23    44    1
    42    24    45    1
    43    26    46    1
    44    27    47    1
    45    28    48    1
    46    29    49    1
    47    30    50    1
    48     1    31    1
    49     1    27    1
    50     2    32    1
    51     2    28    1
    52     4    34    1
    53     4    30    1
