@<TRIPOS>MOLECULE
*****
 50 53 0 0 0
SMALL
GASTEIGER

@<TRIPOS>ATOM
     1 C         -0.37024   -1.396544   1.638106 C.3        1 UNL1     0.1889
     2 C         -0.488466   -0.970819   0.149912 C.3        1 UNL1     0.1342
     3 C         -1.927448   -0.895371   -0.3831 C.3        1 UNL1     0.1174
     4 C         -2.842713   -1.960227   0.2264 C.3        1 UNL1     0.1456
     5 C         -2.694733   -2.060585   1.755581 C.3        1 UNL1     0.2326
     6 O         -1.33675   -2.330759   2.095814 O.3        1 UNL1     -0.3076
     7 O         -3.240353   -0.930165   2.45969 O.3        1 UNL1     -0.4605
     8 C         -3.768474   -1.192659   3.710975 C.ar        1 UNL1     0.1310
     9 C         -4.618077   -2.259037   4.024523 C.ar        1 UNL1     0.0226
     10 C         -5.08787   -2.450598   5.329323 C.ar        1 UNL1     0.1343
     11 C         -4.699941   -1.593321   6.358122 C.ar        1 UNL1     0.1007
     12 C         -3.884854   -0.50107   6.049244 C.ar        1 UNL1     0.1389
     13 C         -3.414746   -0.307151   4.73668 C.ar        1 UNL1     0.0229
     14 C         -5.098678   -1.79758   7.770015 C.2        1 UNL1     0.1740
     15 C         -4.413088   -0.916167   8.772326 C.3        1 UNL1     0.0520
     16 C         -4.299074   0.483673   8.184613 C.3        1 UNL1     0.1322
     17 O         -3.530184   0.465324   6.96169 O.3        1 UNL1     -0.4828
     18 C         -5.637192   1.219581   8.081638 C.ar        1 UNL1     -0.0067
     19 C         -5.882276   2.330839   8.914257 C.ar        1 UNL1     -0.0516
     20 C         -7.113005   2.997198   8.879096 C.ar        1 UNL1     -0.0198
     21 C         -8.107141   2.558507   8.022901 C.ar        1 UNL1     0.1169
     22 C         -7.883975   1.487853   7.166901 C.ar        1 UNL1     -0.0198
     23 C         -6.646849   0.832795   7.188676 C.ar        1 UNL1     -0.0516
     24 O         -9.305937   3.208789   8.043452 O.3        1 UNL1     -0.5068
     25 O         -5.875807   -2.676802   8.132679 O.2        1 UNL1     -0.2917
     26 O         -5.914566   -3.509302   5.568703 O.3        1 UNL1     -0.5058
     27 O         -0.236444   -0.301707   2.530415 O.3        1 UNL1     -0.3648
     28 O         0.217361   -1.931862   -0.656878 O.3        1 UNL1     -0.3841
     29 O         -2.450072   0.427625   -0.246432 O.3        1 UNL1     -0.3863
     30 O         -2.528722   -3.244163   -0.355499 O.3        1 UNL1     -0.3829
     31 H         0.576288   -1.939679   1.733858 H        1 UNL1     0.0937
     32 H         0.0   0.0   0.0 H        1 UNL1     0.0671
     33 H         -1.894755   -1.085852   -1.464935 H        1 UNL1     0.0649
     34 H         -3.887259   -1.742392   -0.022341 H        1 UNL1     0.0683
     35 H         -3.273544   -2.954644   2.019239 H        1 UNL1     0.1085
     36 H         -4.911042   -2.992297   3.281138 H        1 UNL1     0.0691
     37 H         -2.782277   0.551555   4.521971 H        1 UNL1     0.0691
     38 H         -3.424103   -1.344129   8.967988 H        1 UNL1     0.0385
     39 H         -4.981832   -0.927175   9.708375 H        1 UNL1     0.0385
     40 H         -3.693001   1.078774   8.88107 H        1 UNL1     0.0789
     41 H         -5.121416   2.689025   9.601603 H        1 UNL1     0.0623
     42 H         -7.294045   3.845472   9.534586 H        1 UNL1     0.0654
     43 H         -8.650276   1.14545   6.481734 H        1 UNL1     0.0654
     44 H         -6.503398   0.006776   6.498778 H        1 UNL1     0.0623
     45 H         -9.332794   3.826228   7.294609 H        1 UNL1     0.2921
     46 H         -5.700953   -3.897903   6.431704 H        1 UNL1     0.2922
     47 H         0.604195   0.152561   2.37933 H        1 UNL1     0.2126
     48 H         -0.183641   -1.898351   -1.546713 H        1 UNL1     0.2101
     49 H         -2.997754   0.48519   0.552646 H        1 UNL1     0.2100
     50 H         -1.584006   -3.432858   -0.177681 H        1 UNL1     0.2102
@<TRIPOS>BOND
     1     1     2    1
     2     1     6    1
     3     2     3    1
     4     3     4    1
     5     3    29    1
     6     3    33    1
     7     4     5    1
     8     5     6    1
     9     5     7    1
    10     5    35    1
    11     7     8    1
    12     8     9   ar
    13     8    13   ar
    14     9    10   ar
    15     9    36    1
    16    10    11   ar
    17    10    26    1
    18    11    12   ar
    19    11    14    1
    20    12    13   ar
    21    12    17    1
    22    13    37    1
    23    14    15    1
    24    14    25    2
    25    15    16    1
    26    15    38    1
    27    15    39    1
    28    16    17    1
    29    16    18    1
    30    16    40    1
    31    18    19   ar
    32    18    23   ar
    33    19    20   ar
    34    19    41    1
    35    20    21   ar
    36    20    42    1
    37    21    22   ar
    38    21    24    1
    39    22    23   ar
    40    22    43    1
    41    23    44    1
    42    24    45    1
    43    26    46    1
    44    27    47    1
    45    28    48    1
    46    29    49    1
    47    30    50    1
    48     1    31    1
    49     1    27    1
    50     2    32    1
    51     2    28    1
    52     4    34    1
    53     4    30    1
