@<TRIPOS>MOLECULE
*****
 50 53 0 0 0
SMALL
GASTEIGER

@<TRIPOS>ATOM
     1 C         1.18825   -1.454926   1.114476 C.3        1 UNL1     0.1889
     2 C         -0.150476   -0.734034   0.80132 C.3        1 UNL1     0.1342
     3 C         -0.799427   -0.035052   2.005792 C.3        1 UNL1     0.1174
     4 C         -0.576978   -0.788167   3.319737 C.3        1 UNL1     0.1456
     5 C         0.885566   -1.231842   3.505424 C.3        1 UNL1     0.2326
     6 O         1.291695   -2.040806   2.403832 O.3        1 UNL1     -0.3076
     7 O         1.786507   -0.140848   3.768783 O.3        1 UNL1     -0.4605
     8 C         1.336309   0.815123   4.661514 C.ar        1 UNL1     0.1310
     9 C         2.089758   1.372532   5.70022 C.ar        1 UNL1     0.0226
     10 C         1.548097   2.350134   6.54331 C.ar        1 UNL1     0.1343
     11 C         0.246328   2.811686   6.353031 C.ar        1 UNL1     0.1007
     12 C         -0.52951   2.233214   5.344949 C.ar        1 UNL1     0.1389
     13 C         0.014484   1.248365   4.499032 C.ar        1 UNL1     0.0229
     14 C         -0.347679   3.901965   7.160869 C.2        1 UNL1     0.1740
     15 C         -1.669399   4.422293   6.677275 C.3        1 UNL1     0.0520
     16 C         -2.511658   3.241639   6.21401 C.3        1 UNL1     0.1322
     17 O         -1.855735   2.534484   5.138479 O.3        1 UNL1     -0.4828
     18 C         -3.000146   2.347405   7.356135 C.ar        1 UNL1     -0.0067
     19 C         -2.110173   1.423589   7.941562 C.ar        1 UNL1     -0.0516
     20 C         -2.537525   0.55812   8.955611 C.ar        1 UNL1     -0.0198
     21 C         -3.851262   0.601479   9.386939 C.ar        1 UNL1     0.1169
     22 C         -4.74261   1.523126   8.853177 C.ar        1 UNL1     -0.0198
     23 C         -4.310719   2.401298   7.852007 C.ar        1 UNL1     -0.0516
     24 O         -4.240921   -0.282506   10.349819 O.3        1 UNL1     -0.5068
     25 O         0.219522   4.419144   8.119667 O.2        1 UNL1     -0.2917
     26 O         2.335193   2.852531   7.538128 O.3        1 UNL1     -0.5058
     27 O         2.334528   -0.681544   0.797125 O.3        1 UNL1     -0.3648
     28 O         -1.090744   -1.709468   0.31436 O.3        1 UNL1     -0.3841
     29 O         -0.394066   1.333441   2.076799 O.3        1 UNL1     -0.3863
     30 O         -1.423525   -1.95797   3.344449 O.3        1 UNL1     -0.3829
     31 H         1.24673   -2.314107   0.437374 H        1 UNL1     0.0937
     32 H         0.0   0.0   0.0 H        1 UNL1     0.0671
     33 H         -1.884573   -0.00938   1.833985 H        1 UNL1     0.0649
     34 H         -0.874394   -0.159329   4.166205 H        1 UNL1     0.0683
     35 H         0.853988   -1.885156   4.386368 H        1 UNL1     0.1085
     36 H         3.125537   1.096608   5.864987 H        1 UNL1     0.0691
     37 H         -0.610657   0.81298   3.722417 H        1 UNL1     0.0691
     38 H         -1.470981   5.114013   5.851636 H        1 UNL1     0.0385
     39 H         -2.151617   4.983254   7.485092 H        1 UNL1     0.0385
     40 H         -3.422006   3.652882   5.757211 H        1 UNL1     0.0789
     41 H         -1.076301   1.363636   7.614202 H        1 UNL1     0.0623
     42 H         -1.844809   -0.157947   9.390817 H        1 UNL1     0.0654
     43 H         -5.76968   1.575861   9.194141 H        1 UNL1     0.0654
     44 H         -5.03111   3.115513   7.464997 H        1 UNL1     0.0623
     45 H         -4.7205   0.20581   11.03849 H        1 UNL1     0.2921
     46 H         2.897878   3.557502   7.180618 H        1 UNL1     0.2922
     47 H         2.342008   0.134645   1.316393 H        1 UNL1     0.2126
     48 H         -1.566018   -1.292549   -0.429969 H        1 UNL1     0.2101
     49 H         0.338594   1.42838   2.706077 H        1 UNL1     0.2100
     50 H         -1.435073   -2.302469   4.261455 H        1 UNL1     0.2102
@<TRIPOS>BOND
     1     1     2    1
     2     1     6    1
     3     2     3    1
     4     3     4    1
     5     3    29    1
     6     3    33    1
     7     4     5    1
     8     5     6    1
     9     5     7    1
    10     5    35    1
    11     7     8    1
    12     8     9   ar
    13     8    13   ar
    14     9    10   ar
    15     9    36    1
    16    10    11   ar
    17    10    26    1
    18    11    12   ar
    19    11    14    1
    20    12    13   ar
    21    12    17    1
    22    13    37    1
    23    14    15    1
    24    14    25    2
    25    15    16    1
    26    15    38    1
    27    15    39    1
    28    16    17    1
    29    16    18    1
    30    16    40    1
    31    18    19   ar
    32    18    23   ar
    33    19    20   ar
    34    19    41    1
    35    20    21   ar
    36    20    42    1
    37    21    22   ar
    38    21    24    1
    39    22    23   ar
    40    22    43    1
    41    23    44    1
    42    24    45    1
    43    26    46    1
    44    27    47    1
    45    28    48    1
    46    29    49    1
    47    30    50    1
    48     1    31    1
    49     1    27    1
    50     2    32    1
    51     2    28    1
    52     4    34    1
    53     4    30    1
