@<TRIPOS>MOLECULE
*****
 50 53 0 0 0
SMALL
GASTEIGER

@<TRIPOS>ATOM
     1 C         -1.578267   -0.598442   1.38627 C.3        1 UNL1     0.1889
     2 C         -0.662599   0.472952   0.735418 C.3        1 UNL1     0.1342
     3 C         0.186815   1.279898   1.729299 C.3        1 UNL1     0.1174
     4 C         -0.532604   1.532341   3.056637 C.3        1 UNL1     0.1456
     5 C         -1.201118   0.263391   3.616297 C.3        1 UNL1     0.2326
     6 O         -2.114491   -0.267458   2.658791 O.3        1 UNL1     -0.3076
     7 O         -0.261761   -0.712031   4.103616 O.3        1 UNL1     -0.4605
     8 C         -0.691465   -2.026836   4.090524 C.ar        1 UNL1     0.1310
     9 C         0.132227   -3.149913   4.22293 C.ar        1 UNL1     0.0226
     10 C         -0.401645   -4.444057   4.214279 C.ar        1 UNL1     0.1343
     11 C         -1.776177   -4.645788   4.096783 C.ar        1 UNL1     0.1007
     12 C         -2.604555   -3.533909   3.922719 C.ar        1 UNL1     0.1389
     13 C         -2.067222   -2.232884   3.928799 C.ar        1 UNL1     0.0229
     14 C         -2.402139   -5.986522   4.165771 C.2        1 UNL1     0.1740
     15 C         -3.900432   -6.000187   4.246267 C.3        1 UNL1     0.0520
     16 C         -4.442993   -4.928961   3.310287 C.3        1 UNL1     0.1322
     17 O         -3.957444   -3.622409   3.690067 O.3        1 UNL1     -0.4828
     18 C         -4.271403   -5.26283   1.826436 C.ar        1 UNL1     -0.0067
     19 C         -5.127327   -6.2089   1.22597 C.ar        1 UNL1     -0.0516
     20 C         -4.967308   -6.572164   -0.116563 C.ar        1 UNL1     -0.0198
     21 C         -3.952836   -6.00329   -0.8656 C.ar        1 UNL1     0.1169
     22 C         -3.115072   -5.044007   -0.311733 C.ar        1 UNL1     -0.0198
     23 C         -3.286518   -4.666949   1.025611 C.ar        1 UNL1     -0.0516
     24 O         -3.803807   -6.409619   -2.159079 O.3        1 UNL1     -0.5068
     25 O         -1.75866   -7.030344   4.235453 O.2        1 UNL1     -0.2917
     26 O         0.456017   -5.496916   4.346519 O.3        1 UNL1     -0.5058
     27 O         -1.018265   -1.901935   1.376848 O.3        1 UNL1     -0.3648
     28 O         -1.491706   1.408958   0.021849 O.3        1 UNL1     -0.3841
     29 O         1.472177   0.679732   1.901869 O.3        1 UNL1     -0.3863
     30 O         -1.545558   2.54309   2.861704 O.3        1 UNL1     -0.3829
     31 H         -2.465036   -0.681313   0.748421 H        1 UNL1     0.0937
     32 H         0.0   0.0   0.0 H        1 UNL1     0.0671
     33 H         0.382191   2.264278   1.281477 H        1 UNL1     0.0649
     34 H         0.173956   1.925073   3.796188 H        1 UNL1     0.0683
     35 H         -1.800067   0.629846   4.459415 H        1 UNL1     0.1085
     36 H         1.202208   -3.057702   4.37379 H        1 UNL1     0.0691
     37 H         -2.733333   -1.383989   3.790351 H        1 UNL1     0.0691
     38 H         -4.178151   -5.794173   5.285477 H        1 UNL1     0.0385
     39 H         -4.264728   -7.000017   3.986637 H        1 UNL1     0.0385
     40 H         -5.528062   -4.876516   3.472754 H        1 UNL1     0.0789
     41 H         -5.925473   -6.676568   1.795094 H        1 UNL1     0.0623
     42 H         -5.626236   -7.311673   -0.564838 H        1 UNL1     0.0654
     43 H         -2.32694   -4.581107   -0.893524 H        1 UNL1     0.0654
     44 H         -2.620697   -3.906794   1.422715 H        1 UNL1     0.0623
     45 H         -4.271206   -5.781754   -2.73357 H        1 UNL1     0.2921
     46 H         -0.051117   -6.322149   4.403242 H        1 UNL1     0.2922
     47 H         -1.002241   -2.252949   0.47552 H        1 UNL1     0.2126
     48 H         -0.901234   2.117542   -0.299062 H        1 UNL1     0.2101
     49 H         1.395351   -0.109864   2.460823 H        1 UNL1     0.2100
     50 H         -1.188297   3.212409   2.241954 H        1 UNL1     0.2102
@<TRIPOS>BOND
     1     1     2    1
     2     1     6    1
     3     2     3    1
     4     3     4    1
     5     3    29    1
     6     3    33    1
     7     4     5    1
     8     5     6    1
     9     5     7    1
    10     5    35    1
    11     7     8    1
    12     8     9   ar
    13     8    13   ar
    14     9    10   ar
    15     9    36    1
    16    10    11   ar
    17    10    26    1
    18    11    12   ar
    19    11    14    1
    20    12    13   ar
    21    12    17    1
    22    13    37    1
    23    14    15    1
    24    14    25    2
    25    15    16    1
    26    15    38    1
    27    15    39    1
    28    16    17    1
    29    16    18    1
    30    16    40    1
    31    18    19   ar
    32    18    23   ar
    33    19    20   ar
    34    19    41    1
    35    20    21   ar
    36    20    42    1
    37    21    22   ar
    38    21    24    1
    39    22    23   ar
    40    22    43    1
    41    23    44    1
    42    24    45    1
    43    26    46    1
    44    27    47    1
    45    28    48    1
    46    29    49    1
    47    30    50    1
    48     1    31    1
    49     1    27    1
    50     2    32    1
    51     2    28    1
    52     4    34    1
    53     4    30    1
