@<TRIPOS>MOLECULE
*****
 50 53 0 0 0
SMALL
GASTEIGER

@<TRIPOS>ATOM
     1 C         -0.84645   0.575835   1.92944 C.3        1 UNL1     0.1889
     2 C         -0.894531   0.509488   0.379206 C.3        1 UNL1     0.1342
     3 C         -1.02797   1.87249   -0.31713 C.3        1 UNL1     0.1174
     4 C         -1.886196   2.862084   0.474873 C.3        1 UNL1     0.1456
     5 C         -1.514834   2.901723   1.968487 C.3        1 UNL1     0.2326
     6 O         -1.62769   1.59698   2.532204 O.3        1 UNL1     -0.3076
     7 O         -0.241705   3.521371   2.226364 O.3        1 UNL1     -0.4605
     8 C         -0.143247   4.86234   1.90135 C.ar        1 UNL1     0.1310
     9 C         0.667557   5.796988   2.554291 C.ar        1 UNL1     0.0226
     10 C         0.711255   7.13301   2.138314 C.ar        1 UNL1     0.1343
     11 C         -0.037479   7.561965   1.043218 C.ar        1 UNL1     0.1007
     12 C         -0.882132   6.647176   0.408784 C.ar        1 UNL1     0.1389
     13 C         -0.927897   5.304476   0.828895 C.ar        1 UNL1     0.0229
     14 C         0.034644   8.941695   0.509085 C.2        1 UNL1     0.1740
     15 C         -0.661579   9.168085   -0.800712 C.3        1 UNL1     0.0520
     16 C         -1.976496   8.40079   -0.786333 C.3        1 UNL1     0.1322
     17 O         -1.742818   6.986174   -0.609335 O.3        1 UNL1     -0.4828
     18 C         -3.025453   8.993465   0.157674 C.ar        1 UNL1     -0.0067
     19 C         -2.744968   10.19707   0.836552 C.ar        1 UNL1     -0.0516
     20 C         -3.662781   10.741269   1.74288 C.ar        1 UNL1     -0.0198
     21 C         -4.858739   10.089069   1.984019 C.ar        1 UNL1     0.1169
     22 C         -5.177879   8.91983   1.305885 C.ar        1 UNL1     -0.0198
     23 C         -4.26818   8.385183   0.385746 C.ar        1 UNL1     -0.0516
     24 O         -5.711443   10.628997   2.901502 O.3        1 UNL1     -0.5068
     25 O         0.681932   9.839702   1.041145 O.2        1 UNL1     -0.2917
     26 O         1.521722   7.99453   2.818396 O.3        1 UNL1     -0.5058
     27 O         0.470529   0.544227   2.456085 O.3        1 UNL1     -0.3648
     28 O         -2.032435   -0.282777   -0.008345 O.3        1 UNL1     -0.3841
     29 O         0.257731   2.39907   -0.651524 O.3        1 UNL1     -0.3863
     30 O         -3.275724   2.488214   0.3519 O.3        1 UNL1     -0.3829
     31 H         -1.305902   -0.348418   2.296508 H        1 UNL1     0.0937
     32 H         0.0   0.0   -0.0 H        1 UNL1     0.0671
     33 H         -1.535589   1.709818   -1.278162 H        1 UNL1     0.0649
     34 H         -1.785922   3.867189   0.050477 H        1 UNL1     0.0683
     35 H         -2.304611   3.5142   2.42126 H        1 UNL1     0.1085
     36 H         1.315451   5.513981   3.376641 H        1 UNL1     0.0691
     37 H         -1.594544   4.612312   0.319008 H        1 UNL1     0.0691
     38 H         -0.000518   8.804026   -1.594429 H        1 UNL1     0.0385
     39 H         -0.811199   10.24332   -0.946532 H        1 UNL1     0.0385
     40 H         -2.410636   8.483636   -1.791908 H        1 UNL1     0.0789
     41 H         -1.80932   10.723363   0.671537 H        1 UNL1     0.0623
     42 H         -3.429791   11.663701   2.269041 H        1 UNL1     0.0654
     43 H         -6.118082   8.408939   1.475946 H        1 UNL1     0.0654
     44 H         -4.554789   7.475978   -0.133915 H        1 UNL1     0.0623
     45 H         -6.287852   9.923364   3.236986 H        1 UNL1     0.2921
     46 H         1.748268   8.745046   2.24672 H        1 UNL1     0.2922
     47 H         0.804591   -0.363581   2.468167 H        1 UNL1     0.2126
     48 H         -1.999475   -0.362513   -0.981119 H        1 UNL1     0.2101
     49 H         0.877358   2.246008   0.079523 H        1 UNL1     0.2100
     50 H         -3.548365   2.642175   -0.576365 H        1 UNL1     0.2102
@<TRIPOS>BOND
     1     1     2    1
     2     1     6    1
     3     2     3    1
     4     3     4    1
     5     3    29    1
     6     3    33    1
     7     4     5    1
     8     5     6    1
     9     5     7    1
    10     5    35    1
    11     7     8    1
    12     8     9   ar
    13     8    13   ar
    14     9    10   ar
    15     9    36    1
    16    10    11   ar
    17    10    26    1
    18    11    12   ar
    19    11    14    1
    20    12    13   ar
    21    12    17    1
    22    13    37    1
    23    14    15    1
    24    14    25    2
    25    15    16    1
    26    15    38    1
    27    15    39    1
    28    16    17    1
    29    16    18    1
    30    16    40    1
    31    18    19   ar
    32    18    23   ar
    33    19    20   ar
    34    19    41    1
    35    20    21   ar
    36    20    42    1
    37    21    22   ar
    38    21    24    1
    39    22    23   ar
    40    22    43    1
    41    23    44    1
    42    24    45    1
    43    26    46    1
    44    27    47    1
    45    28    48    1
    46    29    49    1
    47    30    50    1
    48     1    31    1
    49     1    27    1
    50     2    32    1
    51     2    28    1
    52     4    34    1
    53     4    30    1
