@<TRIPOS>MOLECULE
*****
 50 53 0 0 0
SMALL
GASTEIGER

@<TRIPOS>ATOM
     1 C         -0.328241   -1.321131   1.70812 C.3        1 UNL1     0.1889
     2 C         -0.468601   -0.971124   0.20222 C.3        1 UNL1     0.1342
     3 C         -1.913745   -0.948383   -0.318843 C.3        1 UNL1     0.1174
     4 C         -2.802913   -1.998735   0.351424 C.3        1 UNL1     0.1456
     5 C         -2.63856   -2.021265   1.88206 C.3        1 UNL1     0.2326
     6 O         -1.272551   -2.249405   2.220938 O.3        1 UNL1     -0.3076
     7 O         -3.198724   -0.867914   2.535756 O.3        1 UNL1     -0.4605
     8 C         -3.699652   -1.075984   3.808276 C.ar        1 UNL1     0.1310
     9 C         -4.521533   -2.141349   4.191433 C.ar        1 UNL1     0.0226
     10 C         -4.964695   -2.274688   5.512694 C.ar        1 UNL1     0.1343
     11 C         -4.576852   -1.358081   6.489039 C.ar        1 UNL1     0.1007
     12 C         -3.789929   -0.267323   6.109853 C.ar        1 UNL1     0.1389
     13 C         -3.346634   -0.132023   4.780713 C.ar        1 UNL1     0.0229
     14 C         -4.946875   -1.497182   7.916585 C.2        1 UNL1     0.1740
     15 C         -4.262433   -0.551968   8.859804 C.3        1 UNL1     0.0520
     16 C         -4.187485   0.817723   8.199285 C.3        1 UNL1     0.1322
     17 O         -3.43959   0.751587   6.965045 O.3        1 UNL1     -0.4828
     18 C         -5.542082   1.520815   8.083296 C.ar        1 UNL1     -0.0067
     19 C         -5.926035   2.08516   6.849477 C.ar        1 UNL1     -0.0516
     20 C         -7.136834   2.776198   6.721435 C.ar        1 UNL1     -0.0198
     21 C         -7.967158   2.91582   7.819113 C.ar        1 UNL1     0.1169
     22 C         -7.632171   2.34246   9.0389 C.ar        1 UNL1     -0.0198
     23 C         -6.430076   1.635535   9.162509 C.ar        1 UNL1     -0.0516
     24 O         -9.120404   3.627842   7.665986 O.3        1 UNL1     -0.5068
     25 O         -5.699322   -2.371717   8.337889 O.2        1 UNL1     -0.2917
     26 O         -5.765115   -3.335759   5.820982 O.3        1 UNL1     -0.5058
     27 O         -0.206682   -0.181589   2.544453 O.3        1 UNL1     -0.3648
     28 O         0.24756   -1.957417   -0.563968 O.3        1 UNL1     -0.3841
     29 O         -2.459938   0.369884   -0.241524 O.3        1 UNL1     -0.3863
     30 O         -2.470268   -3.303661   -0.170308 O.3        1 UNL1     -0.3829
     31 H         0.629241   -1.841413   1.820434 H        1 UNL1     0.0937
     32 H         0.0   0.0   0.0 H        1 UNL1     0.0671
     33 H         -1.887728   -1.191038   -1.390366 H        1 UNL1     0.0649
     34 H         -3.8537   -1.81261   0.10322 H        1 UNL1     0.0683
     35 H         -3.197857   -2.91182   2.195075 H        1 UNL1     0.1085
     36 H         -4.812083   -2.917556   3.492002 H        1 UNL1     0.0691
     37 H         -2.735817   0.726793   4.510841 H        1 UNL1     0.0691
     38 H         -3.261599   -0.949695   9.058979 H        1 UNL1     0.0385
     39 H         -4.814597   -0.525971   9.805435 H        1 UNL1     0.0385
     40 H         -3.5819   1.45974   8.853196 H        1 UNL1     0.0789
     41 H         -5.287554   1.997229   5.975257 H        1 UNL1     0.0623
     42 H         -7.416167   3.217112   5.767716 H        1 UNL1     0.0654
     43 H         -8.282128   2.432845   9.901047 H        1 UNL1     0.0654
     44 H         -6.205118   1.191588   10.127471 H        1 UNL1     0.0623
     45 H         -8.889133   4.533243   7.402394 H        1 UNL1     0.2921
     46 H         -5.359459   -3.849731   6.537003 H        1 UNL1     0.2922
     47 H         0.538347   0.365409   2.258822 H        1 UNL1     0.2126
     48 H         1.183324   -1.898374   -0.290851 H        1 UNL1     0.2101
     49 H         -2.021838   0.947007   -0.887117 H        1 UNL1     0.2100
     50 H         -2.711676   -3.319333   -1.119618 H        1 UNL1     0.2102
@<TRIPOS>BOND
     1     1     2    1
     2     1     6    1
     3     2     3    1
     4     3     4    1
     5     3    29    1
     6     3    33    1
     7     4     5    1
     8     5     6    1
     9     5     7    1
    10     5    35    1
    11     7     8    1
    12     8     9   ar
    13     8    13   ar
    14     9    10   ar
    15     9    36    1
    16    10    11   ar
    17    10    26    1
    18    11    12   ar
    19    11    14    1
    20    12    13   ar
    21    12    17    1
    22    13    37    1
    23    14    15    1
    24    14    25    2
    25    15    16    1
    26    15    38    1
    27    15    39    1
    28    16    17    1
    29    16    18    1
    30    16    40    1
    31    18    19   ar
    32    18    23   ar
    33    19    20   ar
    34    19    41    1
    35    20    21   ar
    36    20    42    1
    37    21    22   ar
    38    21    24    1
    39    22    23   ar
    40    22    43    1
    41    23    44    1
    42    24    45    1
    43    26    46    1
    44    27    47    1
    45    28    48    1
    46    29    49    1
    47    30    50    1
    48     1    31    1
    49     1    27    1
    50     2    32    1
    51     2    28    1
    52     4    34    1
    53     4    30    1
