@<TRIPOS>MOLECULE
*****
 50 53 0 0 0
SMALL
GASTEIGER

@<TRIPOS>ATOM
     1 C         -0.393983   -1.378233   1.648046 C.3        1 UNL1     0.1889
     2 C         -0.493071   -0.967821   0.154164 C.3        1 UNL1     0.1342
     3 C         -1.925317   -0.893942   -0.396905 C.3        1 UNL1     0.1174
     4 C         -2.850952   -1.949775   0.212631 C.3        1 UNL1     0.1456
     5 C         -2.721653   -2.034493   1.74445 C.3        1 UNL1     0.2326
     6 O         -1.368654   -2.304882   2.103825 O.3        1 UNL1     -0.3076
     7 O         -3.272385   -0.895221   2.430071 O.3        1 UNL1     -0.4605
     8 C         -3.81627   -1.143088   3.677579 C.ar        1 UNL1     0.1310
     9 C         -4.672697   -2.203733   3.992008 C.ar        1 UNL1     0.0226
     10 C         -5.158694   -2.380274   5.292986 C.ar        1 UNL1     0.1343
     11 C         -4.78065   -1.513336   6.31736 C.ar        1 UNL1     0.1007
     12 C         -3.958718   -0.426673   6.006914 C.ar        1 UNL1     0.1389
     13 C         -3.472305   -0.247858   4.698152 C.ar        1 UNL1     0.0229
     14 C         -5.196921   -1.701647   7.726406 C.2        1 UNL1     0.1740
     15 C         -4.520849   -0.811687   8.727628 C.3        1 UNL1     0.0520
     16 C         -4.395685   0.581583   8.12672 C.3        1 UNL1     0.1322
     17 O         -3.612211   0.548247   6.913408 O.3        1 UNL1     -0.4828
     18 C         -5.730309   1.320114   7.99994 C.ar        1 UNL1     -0.0067
     19 C         -5.982129   2.440731   8.817875 C.ar        1 UNL1     -0.0516
     20 C         -7.210391   3.110128   8.760921 C.ar        1 UNL1     -0.0198
     21 C         -8.195446   2.66526   7.897448 C.ar        1 UNL1     0.1169
     22 C         -7.965144   1.585061   7.055445 C.ar        1 UNL1     -0.0198
     23 C         -6.730291   0.926806   7.098974 C.ar        1 UNL1     -0.0516
     24 O         -9.392494   3.319077   7.896751 O.3        1 UNL1     -0.5068
     25 O         -5.980921   -2.574835   8.088859 O.2        1 UNL1     -0.2917
     26 O         -5.991302   -3.434088   5.533452 O.3        1 UNL1     -0.5058
     27 O         -0.267717   -0.274469   2.530401 O.3        1 UNL1     -0.3648
     28 O         0.219586   -1.939251   -0.633967 O.3        1 UNL1     -0.3841
     29 O         -2.445672   0.431874   -0.28039 O.3        1 UNL1     -0.3863
     30 O         -2.533749   -3.240622   -0.35198 O.3        1 UNL1     -0.3829
     31 H         0.549733   -1.92298   1.760871 H        1 UNL1     0.0937
     32 H         0.0   0.0   0.0 H        1 UNL1     0.0671
     33 H         -1.880183   -1.095858   -1.476216 H        1 UNL1     0.0649
     34 H         -3.891792   -1.731639   -0.050941 H        1 UNL1     0.0683
     35 H         -3.306204   -2.924111   2.010454 H        1 UNL1     0.1085
     36 H         -4.958852   -2.943932   3.252859 H        1 UNL1     0.0691
     37 H         -2.834791   0.606773   4.482108 H        1 UNL1     0.0691
     38 H         -3.535543   -1.240339   8.939657 H        1 UNL1     0.0385
     39 H         -5.10083   -0.811277   9.656822 H        1 UNL1     0.0385
     40 H         -3.796287   1.182261   8.824164 H        1 UNL1     0.0789
     41 H         -5.228539   2.80398   9.510552 H        1 UNL1     0.0623
     42 H         -7.396813   3.965739   9.405273 H        1 UNL1     0.0654
     43 H         -8.724154   1.237633   6.364716 H        1 UNL1     0.0654
     44 H         -6.580977   0.093193   6.419532 H        1 UNL1     0.0623
     45 H         -9.408544   3.928695   7.141222 H        1 UNL1     0.2921
     46 H         -5.789213   -3.814207   6.402981 H        1 UNL1     0.2922
     47 H         0.615801   -0.259959   2.92416 H        1 UNL1     0.2126
     48 H         -0.328762   -2.116341   -1.422438 H        1 UNL1     0.2101
     49 H         -3.002746   0.499356   0.511386 H        1 UNL1     0.2100
     50 H         -2.008143   -3.737717   0.308586 H        1 UNL1     0.2102
@<TRIPOS>BOND
     1     1     2    1
     2     1     6    1
     3     2     3    1
     4     3     4    1
     5     3    29    1
     6     3    33    1
     7     4     5    1
     8     5     6    1
     9     5     7    1
    10     5    35    1
    11     7     8    1
    12     8     9   ar
    13     8    13   ar
    14     9    10   ar
    15     9    36    1
    16    10    11   ar
    17    10    26    1
    18    11    12   ar
    19    11    14    1
    20    12    13   ar
    21    12    17    1
    22    13    37    1
    23    14    15    1
    24    14    25    2
    25    15    16    1
    26    15    38    1
    27    15    39    1
    28    16    17    1
    29    16    18    1
    30    16    40    1
    31    18    19   ar
    32    18    23   ar
    33    19    20   ar
    34    19    41    1
    35    20    21   ar
    36    20    42    1
    37    21    22   ar
    38    21    24    1
    39    22    23   ar
    40    22    43    1
    41    23    44    1
    42    24    45    1
    43    26    46    1
    44    27    47    1
    45    28    48    1
    46    29    49    1
    47    30    50    1
    48     1    31    1
    49     1    27    1
    50     2    32    1
    51     2    28    1
    52     4    34    1
    53     4    30    1
