@<TRIPOS>MOLECULE
*****
 50 53 0 0 0
SMALL
GASTEIGER

@<TRIPOS>ATOM
     1 C         -0.297036   1.081571   1.874241 C.3        1 UNL1     0.1889
     2 C         0.131337   -0.17814   1.074513 C.3        1 UNL1     0.1342
     3 C         -0.609368   -1.466896   1.46301 C.3        1 UNL1     0.1174
     4 C         -0.941554   -1.533513   2.95577 C.3        1 UNL1     0.1456
     5 C         -1.549225   -0.221369   3.48433 C.3        1 UNL1     0.2326
     6 O         -0.65974   0.863458   3.229699 O.3        1 UNL1     -0.3076
     7 O         -2.887243   0.021395   3.013061 O.3        1 UNL1     -0.4605
     8 C         -3.749016   0.617995   3.915803 C.ar        1 UNL1     0.1310
     9 C         -4.631355   -0.060347   4.763524 C.ar        1 UNL1     0.0226
     10 C         -5.45419   0.634786   5.657747 C.ar        1 UNL1     0.1343
     11 C         -5.397414   2.025246   5.742817 C.ar        1 UNL1     0.1007
     12 C         -4.549982   2.716168   4.872604 C.ar        1 UNL1     0.1389
     13 C         -3.724649   2.017137   3.971708 C.ar        1 UNL1     0.0229
     14 C         -6.18293   2.804549   6.727605 C.2        1 UNL1     0.1740
     15 C         -5.834085   4.260323   6.830453 C.3        1 UNL1     0.0520
     16 C         -5.583284   4.795936   5.427537 C.3        1 UNL1     0.1322
     17 O         -4.493611   4.088459   4.795746 O.3        1 UNL1     -0.4828
     18 C         -6.849081   4.904053   4.573843 C.ar        1 UNL1     -0.0067
     19 C         -7.35246   6.178148   4.239917 C.ar        1 UNL1     -0.0516
     20 C         -8.533863   6.31266   3.500894 C.ar        1 UNL1     -0.0198
     21 C         -9.223538   5.183439   3.097118 C.ar        1 UNL1     0.1169
     22 C         -8.735195   3.914864   3.381857 C.ar        1 UNL1     -0.0198
     23 C         -7.544015   3.779931   4.105003 C.ar        1 UNL1     -0.0516
     24 O         -10.390357   5.353997   2.411666 O.3        1 UNL1     -0.5068
     25 O         -7.013856   2.301917   7.47954 O.2        1 UNL1     -0.2917
     26 O         -6.293326   -0.086071   6.456371 O.3        1 UNL1     -0.5058
     27 O         -1.253726   1.882025   1.198368 O.3        1 UNL1     -0.3648
     28 O         1.534856   -0.406131   1.300039 O.3        1 UNL1     -0.3841
     29 O         -1.755029   -1.663483   0.631778 O.3        1 UNL1     -0.3863
     30 O         0.264625   -1.818142   3.697261 O.3        1 UNL1     -0.3829
     31 H         0.588418   1.722578   1.946077 H        1 UNL1     0.0937
     32 H         0.0   0.0   0.0 H        1 UNL1     0.0671
     33 H         0.056365   -2.314278   1.247456 H        1 UNL1     0.0649
     34 H         -1.637703   -2.35752   3.147577 H        1 UNL1     0.0683
     35 H         -1.577338   -0.362195   4.572106 H        1 UNL1     0.1085
     36 H         -4.682205   -1.143433   4.784969 H        1 UNL1     0.0691
     37 H         -3.07452   2.578458   3.304067 H        1 UNL1     0.0691
     38 H         -4.935429   4.342491   7.451093 H        1 UNL1     0.0385
     39 H         -6.648705   4.789758   7.33629 H        1 UNL1     0.0385
     40 H         -5.21641   5.825684   5.534975 H        1 UNL1     0.0789
     41 H         -6.834514   7.080043   4.552916 H        1 UNL1     0.0623
     42 H         -8.918167   7.300712   3.259905 H        1 UNL1     0.0654
     43 H         -9.259339   3.023793   3.05755 H        1 UNL1     0.0654
     44 H         -7.18608   2.773703   4.300533 H        1 UNL1     0.0623
     45 H         -11.034199   5.777015   3.002633 H        1 UNL1     0.2921
     46 H         -7.208775   0.039224   6.160286 H        1 UNL1     0.2922
     47 H         -1.622219   1.399239   0.44538 H        1 UNL1     0.2126
     48 H         1.996113   -0.14373   0.48021 H        1 UNL1     0.2101
     49 H         -1.666711   -2.495069   0.139376 H        1 UNL1     0.2100
     50 H         0.9412   -2.133548   3.06285 H        1 UNL1     0.2102
@<TRIPOS>BOND
     1     1     2    1
     2     1     6    1
     3     2     3    1
     4     3     4    1
     5     3    29    1
     6     3    33    1
     7     4     5    1
     8     5     6    1
     9     5     7    1
    10     5    35    1
    11     7     8    1
    12     8     9   ar
    13     8    13   ar
    14     9    10   ar
    15     9    36    1
    16    10    11   ar
    17    10    26    1
    18    11    12   ar
    19    11    14    1
    20    12    13   ar
    21    12    17    1
    22    13    37    1
    23    14    15    1
    24    14    25    2
    25    15    16    1
    26    15    38    1
    27    15    39    1
    28    16    17    1
    29    16    18    1
    30    16    40    1
    31    18    19   ar
    32    18    23   ar
    33    19    20   ar
    34    19    41    1
    35    20    21   ar
    36    20    42    1
    37    21    22   ar
    38    21    24    1
    39    22    23   ar
    40    22    43    1
    41    23    44    1
    42    24    45    1
    43    26    46    1
    44    27    47    1
    45    28    48    1
    46    29    49    1
    47    30    50    1
    48     1    31    1
    49     1    27    1
    50     2    32    1
    51     2    28    1
    52     4    34    1
    53     4    30    1
