@<TRIPOS>MOLECULE
*****
 50 53 0 0 0
SMALL
GASTEIGER

@<TRIPOS>ATOM
     1 C         -0.390873   -1.380864   1.646583 C.3        1 UNL1     0.1889
     2 C         -0.492366   -0.968291   0.153458 C.3        1 UNL1     0.1342
     3 C         -1.92546   -0.894306   -0.395388 C.3        1 UNL1     0.1174
     4 C         -2.849675   -1.951497   0.213948 C.3        1 UNL1     0.1456
     5 C         -2.718075   -2.038417   1.745447 C.3        1 UNL1     0.2326
     6 O         -1.364414   -2.308669   2.102427 O.3        1 UNL1     -0.3076
     7 O         -3.268355   -0.900434   2.433565 O.3        1 UNL1     -0.4605
     8 C         -3.810278   -1.150416   3.681506 C.ar        1 UNL1     0.1310
     9 C         -4.979726   -0.572868   4.187601 C.ar        1 UNL1     0.0226
     10 C         -5.458252   -0.904338   5.460803 C.ar        1 UNL1     0.1343
     11 C         -4.791188   -1.840251   6.250065 C.ar        1 UNL1     0.1007
     12 C         -3.600023   -2.39303   5.772211 C.ar        1 UNL1     0.1389
     13 C         -3.11765   -2.05759   4.49306 C.ar        1 UNL1     0.0229
     14 C         -5.297568   -2.289818   7.567495 C.2        1 UNL1     0.1740
     15 C         -4.578746   -3.458483   8.175005 C.3        1 UNL1     0.0520
     16 C         -3.086508   -3.28923   7.924937 C.3        1 UNL1     0.1322
     17 O         -2.80611   -3.241428   6.508546 O.3        1 UNL1     -0.4828
     18 C         -2.450232   -2.157909   8.736102 C.ar        1 UNL1     -0.0067
     19 C         -2.459451   -2.225592   10.144487 C.ar        1 UNL1     -0.0516
     20 C         -1.928566   -1.185782   10.917093 C.ar        1 UNL1     -0.0198
     21 C         -1.393453   -0.072124   10.294801 C.ar        1 UNL1     0.1169
     22 C         -1.339728   0.008543   8.90936 C.ar        1 UNL1     -0.0198
     23 C         -1.853842   -1.039416   8.136363 C.ar        1 UNL1     -0.0516
     24 O         -0.920055   0.937494   11.080273 O.3        1 UNL1     -0.5068
     25 O         -6.288038   -1.808396   8.111265 O.2        1 UNL1     -0.2917
     26 O         -6.603935   -0.304657   5.895976 O.3        1 UNL1     -0.5058
     27 O         -0.263848   -0.278345   2.530383 O.3        1 UNL1     -0.3648
     28 O         0.219605   -1.938202   -0.63716 O.3        1 UNL1     -0.3841
     29 O         -2.446295   0.431079   -0.276144 O.3        1 UNL1     -0.3863
     30 O         -2.53267   -3.24135   -0.353041 O.3        1 UNL1     -0.3829
     31 H         0.553276   -1.925312   1.75721 H        1 UNL1     0.0937
     32 H         0.0   0.0   0.0 H        1 UNL1     0.0671
     33 H         -1.881819   -1.094602   -1.475063 H        1 UNL1     0.0649
     34 H         -3.89101   -1.733486   -0.047766 H        1 UNL1     0.0683
     35 H         -3.301795   -2.928717   2.010995 H        1 UNL1     0.1085
     36 H         -5.573979   0.11915   3.601006 H        1 UNL1     0.0691
     37 H         -2.187319   -2.500993   4.144676 H        1 UNL1     0.0691
     38 H         -4.959021   -4.36682   7.695588 H        1 UNL1     0.0385
     39 H         -4.816334   -3.510287   9.243016 H        1 UNL1     0.0385
     40 H         -2.593982   -4.207846   8.271466 H        1 UNL1     0.0789
     41 H         -2.882015   -3.084912   10.656991 H        1 UNL1     0.0623
     42 H         -1.952318   -1.244377   12.002456 H        1 UNL1     0.0654
     43 H         -0.909289   0.869318   8.411667 H        1 UNL1     0.0654
     44 H         -1.785757   -0.947729   7.05664 H        1 UNL1     0.0623
     45 H         -1.313486   0.849145   11.963519 H        1 UNL1     0.2921
     46 H         -7.367051   -0.69929   5.445053 H        1 UNL1     0.2922
     47 H         -1.137823   0.041978   2.793863 H        1 UNL1     0.2126
     48 H         -0.329818   -2.114396   -1.425083 H        1 UNL1     0.2101
     49 H         -3.002234   0.497114   0.516551 H        1 UNL1     0.2100
     50 H         -2.005846   -3.739162   0.306013 H        1 UNL1     0.2102
@<TRIPOS>BOND
     1     1     2    1
     2     1     6    1
     3     2     3    1
     4     3     4    1
     5     3    29    1
     6     3    33    1
     7     4     5    1
     8     5     6    1
     9     5     7    1
    10     5    35    1
    11     7     8    1
    12     8     9   ar
    13     8    13   ar
    14     9    10   ar
    15     9    36    1
    16    10    11   ar
    17    10    26    1
    18    11    12   ar
    19    11    14    1
    20    12    13   ar
    21    12    17    1
    22    13    37    1
    23    14    15    1
    24    14    25    2
    25    15    16    1
    26    15    38    1
    27    15    39    1
    28    16    17    1
    29    16    18    1
    30    16    40    1
    31    18    19   ar
    32    18    23   ar
    33    19    20   ar
    34    19    41    1
    35    20    21   ar
    36    20    42    1
    37    21    22   ar
    38    21    24    1
    39    22    23   ar
    40    22    43    1
    41    23    44    1
    42    24    45    1
    43    26    46    1
    44    27    47    1
    45    28    48    1
    46    29    49    1
    47    30    50    1
    48     1    31    1
    49     1    27    1
    50     2    32    1
    51     2    28    1
    52     4    34    1
    53     4    30    1
