@<TRIPOS>MOLECULE
*****
 50 53 0 0 0
SMALL
GASTEIGER

@<TRIPOS>ATOM
     1 C         -0.360933   -1.394003   1.642342 C.3        1 UNL1     0.1889
     2 C         -0.482848   -0.973135   0.153065 C.3        1 UNL1     0.1342
     3 C         -1.922694   -0.907306   -0.378888 C.3        1 UNL1     0.1174
     4 C         -2.831405   -1.975592   0.234403 C.3        1 UNL1     0.1456
     5 C         -2.681537   -2.070817   1.763728 C.3        1 UNL1     0.2326
     6 O         -1.321757   -2.332366   2.103521 O.3        1 UNL1     -0.3076
     7 O         -3.23292   -0.941519   2.465144 O.3        1 UNL1     -0.4605
     8 C         -3.758468   -1.203472   3.717625 C.ar        1 UNL1     0.1310
     9 C         -4.601767   -2.273742   4.034912 C.ar        1 UNL1     0.0226
     10 C         -5.069341   -2.464284   5.340657 C.ar        1 UNL1     0.1343
     11 C         -4.685367   -1.601944   6.366706 C.ar        1 UNL1     0.1007
     12 C         -3.876727   -0.505984   6.054047 C.ar        1 UNL1     0.1389
     13 C         -3.408858   -0.313103   4.74053 C.ar        1 UNL1     0.0229
     14 C         -5.081723   -1.804481   7.779517 C.2        1 UNL1     0.1740
     15 C         -4.400253   -0.916401   8.778747 C.3        1 UNL1     0.0520
     16 C         -4.294651   0.482403   8.18701 C.3        1 UNL1     0.1322
     17 O         -3.526728   0.464956   6.963466 O.3        1 UNL1     -0.4828
     18 C         -5.63699   1.210456   8.083151 C.ar        1 UNL1     -0.0067
     19 C         -5.658878   2.575993   7.732375 C.ar        1 UNL1     -0.0516
     20 C         -6.865518   3.283566   7.674715 C.ar        1 UNL1     -0.0198
     21 C         -8.053617   2.640282   7.972091 C.ar        1 UNL1     0.1169
     22 C         -8.067771   1.287983   8.288203 C.ar        1 UNL1     -0.0198
     23 C         -6.863165   0.575661   8.327943 C.ar        1 UNL1     -0.0516
     24 O         -9.204907   3.371069   7.942348 O.3        1 UNL1     -0.5068
     25 O         -5.853561   -2.687052   8.14533 O.2        1 UNL1     -0.2917
     26 O         -5.88984   -3.526959   5.583735 O.3        1 UNL1     -0.5058
     27 O         -0.232547   -0.295925   2.531459 O.3        1 UNL1     -0.3648
     28 O         0.227695   -1.932443   -0.651648 O.3        1 UNL1     -0.3841
     29 O         -2.452659   0.413099   -0.245471 O.3        1 UNL1     -0.3863
     30 O         -2.510674   -3.259366   -0.344169 O.3        1 UNL1     -0.3829
     31 H         0.588729   -1.931516   1.738784 H        1 UNL1     0.0937
     32 H         0.0   0.0   0.0 H        1 UNL1     0.0671
     33 H         -1.889862   -1.100638   -1.460213 H        1 UNL1     0.0649
     34 H         -3.877379   -1.764355   -0.014028 H        1 UNL1     0.0683
     35 H         -3.255063   -2.967383   2.030403 H        1 UNL1     0.1085
     36 H         -4.891231   -3.010729   3.293845 H        1 UNL1     0.0691
     37 H         -2.781431   0.548551   4.522857 H        1 UNL1     0.0691
     38 H         -3.408698   -1.338224   8.974737 H        1 UNL1     0.0385
     39 H         -4.968114   -0.927988   9.715324 H        1 UNL1     0.0385
     40 H         -3.691345   1.082869   8.88126 H        1 UNL1     0.0789
     41 H         -4.738897   3.10595   7.503396 H        1 UNL1     0.0623
     42 H         -6.868083   4.339181   7.414555 H        1 UNL1     0.0654
     43 H         -8.994059   0.770752   8.508141 H        1 UNL1     0.0654
     44 H         -6.912492   -0.482015   8.568222 H        1 UNL1     0.0623
     45 H         -9.766828   3.029164   7.228162 H        1 UNL1     0.2921
     46 H         -5.616043   -3.965982   6.404531 H        1 UNL1     0.2922
     47 H         0.510685   0.263967   2.266908 H        1 UNL1     0.2126
     48 H         1.1794   -1.775379   -0.498937 H        1 UNL1     0.2101
     49 H         -2.999965   0.469818   0.553924 H        1 UNL1     0.2100
     50 H         -2.769636   -3.237555   -1.28872 H        1 UNL1     0.2102
@<TRIPOS>BOND
     1     1     2    1
     2     1     6    1
     3     2     3    1
     4     3     4    1
     5     3    29    1
     6     3    33    1
     7     4     5    1
     8     5     6    1
     9     5     7    1
    10     5    35    1
    11     7     8    1
    12     8     9   ar
    13     8    13   ar
    14     9    10   ar
    15     9    36    1
    16    10    11   ar
    17    10    26    1
    18    11    12   ar
    19    11    14    1
    20    12    13   ar
    21    12    17    1
    22    13    37    1
    23    14    15    1
    24    14    25    2
    25    15    16    1
    26    15    38    1
    27    15    39    1
    28    16    17    1
    29    16    18    1
    30    16    40    1
    31    18    19   ar
    32    18    23   ar
    33    19    20   ar
    34    19    41    1
    35    20    21   ar
    36    20    42    1
    37    21    22   ar
    38    21    24    1
    39    22    23   ar
    40    22    43    1
    41    23    44    1
    42    24    45    1
    43    26    46    1
    44    27    47    1
    45    28    48    1
    46    29    49    1
    47    30    50    1
    48     1    31    1
    49     1    27    1
    50     2    32    1
    51     2    28    1
    52     4    34    1
    53     4    30    1
