@<TRIPOS>MOLECULE
*****
 50 53 0 0 0
SMALL
GASTEIGER

@<TRIPOS>ATOM
     1 C         -0.330127   -1.327106   1.703118 C.3        1 UNL1     0.1889
     2 C         -0.461546   -0.975615   0.196757 C.3        1 UNL1     0.1342
     3 C         -1.902621   -0.964761   -0.335831 C.3        1 UNL1     0.1174
     4 C         -2.787742   -2.024189   0.325448 C.3        1 UNL1     0.1456
     5 C         -2.635443   -2.048048   1.857309 C.3        1 UNL1     0.2326
     6 O         -1.270213   -2.264664   2.206724 O.3        1 UNL1     -0.3076
     7 O         -3.211056   -0.900911   2.508514 O.3        1 UNL1     -0.4605
     8 C         -3.773898   -1.128388   3.751491 C.ar        1 UNL1     0.1310
     9 C         -4.626352   -2.190109   4.073007 C.ar        1 UNL1     0.0226
     10 C         -5.13284   -2.344675   5.368955 C.ar        1 UNL1     0.1343
     11 C         -4.779756   -1.453851   6.381676 C.ar        1 UNL1     0.1007
     12 C         -3.962084   -0.366348   6.063033 C.ar        1 UNL1     0.1389
     13 C         -3.455067   -0.20966   4.759264 C.ar        1 UNL1     0.0229
     14 C         -5.218266   -1.617376   7.787067 C.2        1 UNL1     0.1740
     15 C         -4.567015   -0.701326   8.781186 C.3        1 UNL1     0.0520
     16 C         -4.443697   0.680582   8.154225 C.3        1 UNL1     0.1322
     17 O         -3.639462   0.629767   6.955186 O.3        1 UNL1     -0.4828
     18 C         -5.782303   1.404385   7.990014 C.ar        1 UNL1     -0.0067
     19 C         -6.101391   1.997721   6.751326 C.ar        1 UNL1     -0.0516
     20 C         -7.295963   2.707725   6.581461 C.ar        1 UNL1     -0.0198
     21 C         -8.174379   2.837524   7.642293 C.ar        1 UNL1     0.1169
     22 C         -7.903667   2.236122   8.864532 C.ar        1 UNL1     -0.0198
     23 C         -6.717788   1.51044   9.029252 C.ar        1 UNL1     -0.0516
     24 O         -9.310032   3.568199   7.450444 O.3        1 UNL1     -0.5068
     25 O         -6.000741   -2.490065   8.153991 O.2        1 UNL1     -0.2917
     26 O         -5.960281   -3.400849   5.616795 O.3        1 UNL1     -0.5058
     27 O         -0.225404   -0.188054   2.542393 O.3        1 UNL1     -0.3648
     28 O         0.269468   -1.95411   -0.565393 O.3        1 UNL1     -0.3841
     29 O         -2.461121   0.348459   -0.260584 O.3        1 UNL1     -0.3863
     30 O         -2.439338   -3.325156   -0.195887 O.3        1 UNL1     -0.3829
     31 H         0.631017   -1.839066   1.822191 H        1 UNL1     0.0937
     32 H         0.0   0.0   0.0 H        1 UNL1     0.0671
     33 H         -1.865876   -1.205222   -1.407535 H        1 UNL1     0.0649
     34 H         -3.838124   -1.846953   0.069155 H        1 UNL1     0.0683
     35 H         -3.189281   -2.944104   2.164271 H        1 UNL1     0.1085
     36 H         -4.893503   -2.947636   3.344375 H        1 UNL1     0.0691
     37 H         -2.821379   0.646119   4.536612 H        1 UNL1     0.0691
     38 H         -3.581788   -1.11674   9.018433 H        1 UNL1     0.0385
     39 H         -5.162682   -0.687344   9.700297 H        1 UNL1     0.0385
     40 H         -3.861445   1.300592   8.849273 H        1 UNL1     0.0789
     41 H         -5.424281   1.917922   5.905864 H        1 UNL1     0.0623
     42 H         -7.525115   3.170807   5.624875 H        1 UNL1     0.0654
     43 H         -8.591647   2.318767   9.697457 H        1 UNL1     0.0654
     44 H         -6.543507   1.044859   9.994501 H        1 UNL1     0.0623
     45 H         -9.055163   4.475077   7.21522 H        1 UNL1     0.2921
     46 H         -5.594784   -3.935603   6.339195 H        1 UNL1     0.2922
     47 H         0.517096   0.36597   2.263807 H        1 UNL1     0.2126
     48 H         1.202335   -1.887744   -0.28417 H        1 UNL1     0.2101
     49 H         -2.022963   0.930648   -0.901573 H        1 UNL1     0.2100
     50 H         -2.672996   -3.341241   -1.147127 H        1 UNL1     0.2102
@<TRIPOS>BOND
     1     1     2    1
     2     1     6    1
     3     2     3    1
     4     3     4    1
     5     3    29    1
     6     3    33    1
     7     4     5    1
     8     5     6    1
     9     5     7    1
    10     5    35    1
    11     7     8    1
    12     8     9   ar
    13     8    13   ar
    14     9    10   ar
    15     9    36    1
    16    10    11   ar
    17    10    26    1
    18    11    12   ar
    19    11    14    1
    20    12    13   ar
    21    12    17    1
    22    13    37    1
    23    14    15    1
    24    14    25    2
    25    15    16    1
    26    15    38    1
    27    15    39    1
    28    16    17    1
    29    16    18    1
    30    16    40    1
    31    18    19   ar
    32    18    23   ar
    33    19    20   ar
    34    19    41    1
    35    20    21   ar
    36    20    42    1
    37    21    22   ar
    38    21    24    1
    39    22    23   ar
    40    22    43    1
    41    23    44    1
    42    24    45    1
    43    26    46    1
    44    27    47    1
    45    28    48    1
    46    29    49    1
    47    30    50    1
    48     1    31    1
    49     1    27    1
    50     2    32    1
    51     2    28    1
    52     4    34    1
    53     4    30    1
