@<TRIPOS>MOLECULE
*****
 50 53 0 0 0
SMALL
GASTEIGER

@<TRIPOS>ATOM
     1 C         -0.335439   -1.329883   1.699911 C.3        1 UNL1     0.1889
     2 C         -0.464285   -0.974835   0.194162 C.3        1 UNL1     0.1342
     3 C         -1.904738   -0.959113   -0.339985 C.3        1 UNL1     0.1174
     4 C         -2.793326   -2.017656   0.318052 C.3        1 UNL1     0.1456
     5 C         -2.642781   -2.045182   1.850026 C.3        1 UNL1     0.2326
     6 O         -1.278502   -2.266078   2.200477 O.3        1 UNL1     -0.3076
     7 O         -3.216144   -0.897953   2.503051 O.3        1 UNL1     -0.4605
     8 C         -3.727319   -1.114174   3.770125 C.ar        1 UNL1     0.1310
     9 C         -4.545914   -2.186177   4.141623 C.ar        1 UNL1     0.0226
     10 C         -5.000241   -2.327498   5.458255 C.ar        1 UNL1     0.1343
     11 C         -4.6271   -1.412327   6.441651 C.ar        1 UNL1     0.1007
     12 C         -3.843656   -0.315166   6.073904 C.ar        1 UNL1     0.1389
     13 C         -3.389137   -0.171853   4.749402 C.ar        1 UNL1     0.0229
     14 C         -5.009224   -1.559368   7.865208 C.2        1 UNL1     0.1740
     15 C         -4.339381   -0.6136   8.818299 C.3        1 UNL1     0.0520
     16 C         -4.267068   0.759126   8.163813 C.3        1 UNL1     0.1322
     17 O         -3.507559   0.702547   6.936207 O.3        1 UNL1     -0.4828
     18 C         -5.624963   1.454153   8.038187 C.ar        1 UNL1     -0.0067
     19 C         -6.000823   2.021748   6.803368 C.ar        1 UNL1     -0.0516
     20 C         -7.214739   2.705689   6.666999 C.ar        1 UNL1     -0.0198
     21 C         -8.056278   2.834978   7.757377 C.ar        1 UNL1     0.1169
     22 C         -7.729191   2.258123   8.97766 C.ar        1 UNL1     -0.0198
     23 C         -6.523835   1.55826   9.109441 C.ar        1 UNL1     -0.0516
     24 O         -9.212541   3.540382   7.596567 O.3        1 UNL1     -0.5068
     25 O         -5.759942   -2.440261   8.276225 O.2        1 UNL1     -0.2917
     26 O         -5.796723   -3.394777   5.755099 O.3        1 UNL1     -0.5058
     27 O         -0.228698   -0.192902   2.541735 O.3        1 UNL1     -0.3648
     28 O         0.265037   -1.953588   -0.569276 O.3        1 UNL1     -0.3841
     29 O         -2.459922   0.355385   -0.262542 O.3        1 UNL1     -0.3863
     30 O         -2.447713   -3.318404   -0.205681 O.3        1 UNL1     -0.3829
     31 H         0.624245   -1.844583   1.818944 H        1 UNL1     0.0937
     32 H         0.0   0.0   0.0 H        1 UNL1     0.0671
     33 H         -1.867431   -1.197378   -1.41216 H        1 UNL1     0.0649
     34 H         -3.842962   -1.837154   0.060986 H        1 UNL1     0.0683
     35 H         -3.199273   -2.940456   2.154462 H        1 UNL1     0.1085
     36 H         -4.825177   -2.961432   3.436561 H        1 UNL1     0.0691
     37 H         -2.781321   0.691837   4.488455 H        1 UNL1     0.0691
     38 H         -3.337912   -1.005819   9.02506 H        1 UNL1     0.0385
     39 H         -4.900288   -0.594793   9.758941 H        1 UNL1     0.0385
     40 H         -3.671527   1.40235   8.825714 H        1 UNL1     0.0789
     41 H         -5.353555   1.941903   5.934852 H        1 UNL1     0.0623
     42 H         -7.487846   3.149226   5.712694 H        1 UNL1     0.0654
     43 H         -8.387834   2.340406   9.834007 H        1 UNL1     0.0654
     44 H         -6.305186   1.111294   10.074459 H        1 UNL1     0.0623
     45 H         -8.984567   4.448437   7.339311 H        1 UNL1     0.2921
     46 H         -5.394368   -3.909009   6.472795 H        1 UNL1     0.2922
     47 H         0.515435   0.359881   2.265046 H        1 UNL1     0.2126
     48 H         1.197883   -1.88975   -0.287398 H        1 UNL1     0.2101
     49 H         -2.01973   0.937742   -0.901984 H        1 UNL1     0.2100
     50 H         -2.68036   -3.331852   -1.15721 H        1 UNL1     0.2102
@<TRIPOS>BOND
     1     1     2    1
     2     1     6    1
     3     2     3    1
     4     3     4    1
     5     3    29    1
     6     3    33    1
     7     4     5    1
     8     5     6    1
     9     5     7    1
    10     5    35    1
    11     7     8    1
    12     8     9   ar
    13     8    13   ar
    14     9    10   ar
    15     9    36    1
    16    10    11   ar
    17    10    26    1
    18    11    12   ar
    19    11    14    1
    20    12    13   ar
    21    12    17    1
    22    13    37    1
    23    14    15    1
    24    14    25    2
    25    15    16    1
    26    15    38    1
    27    15    39    1
    28    16    17    1
    29    16    18    1
    30    16    40    1
    31    18    19   ar
    32    18    23   ar
    33    19    20   ar
    34    19    41    1
    35    20    21   ar
    36    20    42    1
    37    21    22   ar
    38    21    24    1
    39    22    23   ar
    40    22    43    1
    41    23    44    1
    42    24    45    1
    43    26    46    1
    44    27    47    1
    45    28    48    1
    46    29    49    1
    47    30    50    1
    48     1    31    1
    49     1    27    1
    50     2    32    1
    51     2    28    1
    52     4    34    1
    53     4    30    1
