@<TRIPOS>MOLECULE
*****
 50 53 0 0 0
SMALL
GASTEIGER

@<TRIPOS>ATOM
     1 C         -0.703362   -2.066911   0.062962 C.3        1 UNL1     0.1889
     2 C         -0.794461   -0.577001   0.48935 C.3        1 UNL1     0.1342
     3 C         -0.725687   -0.33857   2.005558 C.3        1 UNL1     0.1174
     4 C         -1.399609   -1.451145   2.812479 C.3        1 UNL1     0.1456
     5 C         -0.994798   -2.856768   2.332148 C.3        1 UNL1     0.2326
     6 O         -1.300344   -3.00392   0.947281 O.3        1 UNL1     -0.3076
     7 O         0.365475   -3.201922   2.651281 O.3        1 UNL1     -0.4605
     8 C         0.803972   -4.429517   2.188399 C.ar        1 UNL1     0.1310
     9 C         2.126175   -4.885095   2.227496 C.ar        1 UNL1     0.0226
     10 C         2.468605   -6.154962   1.747827 C.ar        1 UNL1     0.1343
     11 C         1.492267   -7.01021   1.238754 C.ar        1 UNL1     0.1007
     12 C         0.175098   -6.550728   1.156738 C.ar        1 UNL1     0.1389
     13 C         -0.16852   -5.272832   1.636675 C.ar        1 UNL1     0.0229
     14 C         1.784598   -8.393222   0.796063 C.2        1 UNL1     0.1740
     15 C         0.586962   -9.243547   0.489202 C.3        1 UNL1     0.0520
     16 C         -0.437842   -8.386738   -0.241286 C.3        1 UNL1     0.1322
     17 O         -0.845381   -7.266827   0.575281 O.3        1 UNL1     -0.4828
     18 C         -0.025695   -8.015016   -1.667708 C.ar        1 UNL1     -0.0067
     19 C         0.390584   -6.697114   -1.947103 C.ar        1 UNL1     -0.0516
     20 C         0.728843   -6.311586   -3.249758 C.ar        1 UNL1     -0.0198
     21 C         0.648083   -7.23058   -4.280658 C.ar        1 UNL1     0.1169
     22 C         0.273715   -8.544552   -4.031327 C.ar        1 UNL1     -0.0198
     23 C         -0.046849   -8.935152   -2.725676 C.ar        1 UNL1     -0.0516
     24 O         0.948925   -6.808862   -5.542422 O.3        1 UNL1     -0.5068
     25 O         2.918308   -8.863571   0.751826 O.2        1 UNL1     -0.2917
     26 O         3.776275   -6.538703   1.81362 O.3        1 UNL1     -0.5058
     27 O         0.60303   -2.466602   -0.319629 O.3        1 UNL1     -0.3648
     28 O         -2.051292   -0.046833   0.02891 O.3        1 UNL1     -0.3841
     29 O         0.619626   -0.091789   2.419521 O.3        1 UNL1     -0.3863
     30 O         -2.833067   -1.316892   2.699062 O.3        1 UNL1     -0.3829
     31 H         -1.295145   -2.166763   -0.8535 H        1 UNL1     0.0937
     32 H         0.0   0.0   0.0 H        1 UNL1     0.0671
     33 H         -1.273066   0.588916   2.22434 H        1 UNL1     0.0649
     34 H         -1.150857   -1.346234   3.874325 H        1 UNL1     0.0683
     35 H         -1.667997   -3.527708   2.880347 H        1 UNL1     0.1085
     36 H         2.92173   -4.289952   2.662258 H        1 UNL1     0.0691
     37 H         -1.200862   -4.938257   1.560382 H        1 UNL1     0.0691
     38 H         0.18851   -9.610307   1.441174 H        1 UNL1     0.0385
     39 H         0.903072   -10.107744   -0.104951 H        1 UNL1     0.0385
     40 H         -1.347599   -8.992542   -0.350209 H        1 UNL1     0.0789
     41 H         0.453467   -5.954669   -1.156868 H        1 UNL1     0.0623
     42 H         1.036957   -5.289248   -3.454461 H        1 UNL1     0.0654
     43 H         0.2216   -9.276222   -4.828732 H        1 UNL1     0.0654
     44 H         -0.325042   -9.972348   -2.565427 H        1 UNL1     0.0623
     45 H         0.303329   -7.194308   -6.156712 H        1 UNL1     0.2921
     46 H         3.909077   -7.329969   1.268026 H        1 UNL1     0.2922
     47 H         1.195531   -1.70207   -0.33674 H        1 UNL1     0.2126
     48 H         -1.840737   0.618461   -0.654306 H        1 UNL1     0.2101
     49 H         0.805066   -0.571856   3.242286 H        1 UNL1     0.2100
     50 H         -3.202023   -1.248476   3.603994 H        1 UNL1     0.2102
@<TRIPOS>BOND
     1     1     2    1
     2     1     6    1
     3     2     3    1
     4     3     4    1
     5     3    29    1
     6     3    33    1
     7     4     5    1
     8     5     6    1
     9     5     7    1
    10     5    35    1
    11     7     8    1
    12     8     9   ar
    13     8    13   ar
    14     9    10   ar
    15     9    36    1
    16    10    11   ar
    17    10    26    1
    18    11    12   ar
    19    11    14    1
    20    12    13   ar
    21    12    17    1
    22    13    37    1
    23    14    15    1
    24    14    25    2
    25    15    16    1
    26    15    38    1
    27    15    39    1
    28    16    17    1
    29    16    18    1
    30    16    40    1
    31    18    19   ar
    32    18    23   ar
    33    19    20   ar
    34    19    41    1
    35    20    21   ar
    36    20    42    1
    37    21    22   ar
    38    21    24    1
    39    22    23   ar
    40    22    43    1
    41    23    44    1
    42    24    45    1
    43    26    46    1
    44    27    47    1
    45    28    48    1
    46    29    49    1
    47    30    50    1
    48     1    31    1
    49     1    27    1
    50     2    32    1
    51     2    28    1
    52     4    34    1
    53     4    30    1
