@<TRIPOS>MOLECULE
*****
 50 53 0 0 0
SMALL
GASTEIGER

@<TRIPOS>ATOM
     1 C         1.974425   0.92512   -0.12886 C.3        1 UNL1     0.1889
     2 C         0.667921   0.590073   0.639732 C.3        1 UNL1     0.1342
     3 C         -0.096439   1.813293   1.168838 C.3        1 UNL1     0.1174
     4 C         0.831676   2.947172   1.611601 C.3        1 UNL1     0.1456
     5 C         1.940268   3.23797   0.583583 C.3        1 UNL1     0.2326
     6 O         2.697177   2.055059   0.337253 O.3        1 UNL1     -0.3076
     7 O         1.456613   3.861199   -0.620155 O.3        1 UNL1     -0.4605
     8 C         0.332104   4.654908   -0.482191 C.ar        1 UNL1     0.1310
     9 C         -0.37355   4.860529   0.708217 C.ar        1 UNL1     0.0226
     10 C         -1.493931   5.69893   0.749832 C.ar        1 UNL1     0.1343
     11 C         -1.922064   6.371443   -0.393964 C.ar        1 UNL1     0.1007
     12 C         -1.250196   6.142028   -1.597603 C.ar        1 UNL1     0.1389
     13 C         -0.125284   5.29691   -1.639754 C.ar        1 UNL1     0.0229
     14 C         -3.048144   7.333766   -0.388263 C.2        1 UNL1     0.1740
     15 C         -3.228561   8.129512   -1.647544 C.3        1 UNL1     0.0520
     16 C         -2.989353   7.209832   -2.83705 C.3        1 UNL1     0.1322
     17 O         -1.651047   6.666749   -2.804356 O.3        1 UNL1     -0.4828
     18 C         -4.091856   6.168096   -3.041986 C.ar        1 UNL1     -0.0067
     19 C         -5.021299   5.930915   -2.0085 C.ar        1 UNL1     -0.0516
     20 C         -6.01284   4.952026   -2.144836 C.ar        1 UNL1     -0.0198
     21 C         -6.080753   4.200263   -3.304175 C.ar        1 UNL1     0.1169
     22 C         -5.200587   4.43344   -4.352877 C.ar        1 UNL1     -0.0198
     23 C         -4.220538   5.424898   -4.224141 C.ar        1 UNL1     -0.0516
     24 O         -7.035996   3.230086   -3.385844 O.3        1 UNL1     -0.5068
     25 O         -3.752522   7.54441   0.59559 O.2        1 UNL1     -0.2917
     26 O         -2.138442   5.856149   1.942087 O.3        1 UNL1     -0.5058
     27 O         1.810144   0.953203   -1.537764 O.3        1 UNL1     -0.3648
     28 O         1.003881   -0.229098   1.774982 O.3        1 UNL1     -0.3841
     29 O         -1.082717   2.241088   0.227361 O.3        1 UNL1     -0.3863
     30 O         1.446506   2.592341   2.869285 O.3        1 UNL1     -0.3829
     31 H         2.662771   0.090999   0.045783 H        1 UNL1     0.0937
     32 H         -0.0   0.0   0.0 H        1 UNL1     0.0671
     33 H         -0.659557   1.497874   2.058292 H        1 UNL1     0.0649
     34 H         0.250792   3.859814   1.78498 H        1 UNL1     0.0683
     35 H         2.605044   3.93966   1.102797 H        1 UNL1     0.1085
     36 H         -0.05789   4.41072   1.643178 H        1 UNL1     0.0691
     37 H         0.379601   5.133993   -2.589513 H        1 UNL1     0.0691
     38 H         -2.501459   8.948354   -1.628909 H        1 UNL1     0.0385
     39 H         -4.233692   8.56473   -1.656216 H        1 UNL1     0.0385
     40 H         -3.009659   7.835797   -3.739422 H        1 UNL1     0.0789
     41 H         -4.98337   6.501344   -1.085016 H        1 UNL1     0.0623
     42 H         -6.71629   4.770401   -1.336021 H        1 UNL1     0.0654
     43 H         -5.254356   3.860816   -5.271093 H        1 UNL1     0.0654
     44 H         -3.556262   5.587363   -5.06746 H        1 UNL1     0.0623
     45 H         -7.878496   3.648664   -3.626057 H        1 UNL1     0.2921
     46 H         -1.844878   6.679911   2.362383 H        1 UNL1     0.2922
     47 H         1.77906   1.867247   -1.853068 H        1 UNL1     0.2126
     48 H         1.665098   -0.877907   1.465834 H        1 UNL1     0.2101
     49 H         -1.552795   1.471351   -0.130864 H        1 UNL1     0.2100
     50 H         1.189994   3.267325   3.531336 H        1 UNL1     0.2102
@<TRIPOS>BOND
     1     1     2    1
     2     1     6    1
     3     2     3    1
     4     3     4    1
     5     3    29    1
     6     3    33    1
     7     4     5    1
     8     5     6    1
     9     5     7    1
    10     5    35    1
    11     7     8    1
    12     8     9   ar
    13     8    13   ar
    14     9    10   ar
    15     9    36    1
    16    10    11   ar
    17    10    26    1
    18    11    12   ar
    19    11    14    1
    20    12    13   ar
    21    12    17    1
    22    13    37    1
    23    14    15    1
    24    14    25    2
    25    15    16    1
    26    15    38    1
    27    15    39    1
    28    16    17    1
    29    16    18    1
    30    16    40    1
    31    18    19   ar
    32    18    23   ar
    33    19    20   ar
    34    19    41    1
    35    20    21   ar
    36    20    42    1
    37    21    22   ar
    38    21    24    1
    39    22    23   ar
    40    22    43    1
    41    23    44    1
    42    24    45    1
    43    26    46    1
    44    27    47    1
    45    28    48    1
    46    29    49    1
    47    30    50    1
    48     1    31    1
    49     1    27    1
    50     2    32    1
    51     2    28    1
    52     4    34    1
    53     4    30    1
