@<TRIPOS>MOLECULE
*****
 50 53 0 0 0
SMALL
GASTEIGER

@<TRIPOS>ATOM
     1 C         1.405412   1.515632   0.706032 C.3        1 UNL1     0.1889
     2 C         0.635443   0.178437   0.876319 C.3        1 UNL1     0.1342
     3 C         -0.22563   0.091461   2.145749 C.3        1 UNL1     0.1174
     4 C         0.399732   0.819643   3.338138 C.3        1 UNL1     0.1456
     5 C         0.915872   2.222274   2.968558 C.3        1 UNL1     0.2326
     6 O         1.859617   2.128019   1.903978 O.3        1 UNL1     -0.3076
     7 O         -0.135675   3.170357   2.710276 O.3        1 UNL1     -0.4605
     8 C         0.129883   4.481268   3.063149 C.ar        1 UNL1     0.1310
     9 C         -0.638727   5.256551   3.938063 C.ar        1 UNL1     0.0226
     10 C         -0.276723   6.573229   4.246635 C.ar        1 UNL1     0.1343
     11 C         0.876961   7.139179   3.705752 C.ar        1 UNL1     0.1007
     12 C         1.630132   6.388817   2.798849 C.ar        1 UNL1     0.1389
     13 C         1.264477   5.065833   2.486693 C.ar        1 UNL1     0.0229
     14 C         1.351777   8.496153   4.062577 C.2        1 UNL1     0.1740
     15 C         2.720198   8.857192   3.563955 C.3        1 UNL1     0.0520
     16 C         2.874188   8.320003   2.147738 C.3        1 UNL1     0.1322
     17 O         2.722519   6.883499   2.12487 O.3        1 UNL1     -0.4828
     18 C         2.02846   9.063761   1.111258 C.ar        1 UNL1     -0.0067
     19 C         0.804211   8.506832   0.687868 C.ar        1 UNL1     -0.0516
     20 C         0.029361   9.137197   -0.293055 C.ar        1 UNL1     -0.0198
     21 C         0.470364   10.31842   -0.862315 C.ar        1 UNL1     0.1169
     22 C         1.655247   10.908737   -0.442295 C.ar        1 UNL1     -0.0198
     23 C         2.421221   10.288153   0.551796 C.ar        1 UNL1     -0.0516
     24 O         -0.292346   10.883731   -1.84165 O.3        1 UNL1     -0.5068
     25 O         0.722149   9.264604   4.784751 O.2        1 UNL1     -0.2917
     26 O         -1.069713   7.276026   5.106185 O.3        1 UNL1     -0.5058
     27 O         0.745381   2.444368   -0.139305 O.3        1 UNL1     -0.3648
     28 O         1.592979   -0.89512   0.933811 O.3        1 UNL1     -0.3841
     29 O         -1.56482   0.513419   1.879942 O.3        1 UNL1     -0.3863
     30 O         1.503095   0.037796   3.845086 O.3        1 UNL1     -0.3829
     31 H         2.332277   1.27722   0.172966 H        1 UNL1     0.0937
     32 H         -0.0   0.0   0.0 H        1 UNL1     0.0671
     33 H         -0.30382   -0.968296   2.425964 H        1 UNL1     0.0649
     34 H         -0.331664   0.905559   4.149358 H        1 UNL1     0.0683
     35 H         1.470661   2.543133   3.859141 H        1 UNL1     0.1085
     36 H         -1.515654   4.85582   4.434585 H        1 UNL1     0.0691
     37 H         1.866978   4.503173   1.776835 H        1 UNL1     0.0691
     38 H         3.450372   8.401071   4.240953 H        1 UNL1     0.0385
     39 H         2.843679   9.944578   3.610039 H        1 UNL1     0.0385
     40 H         3.91714   8.490758   1.848381 H        1 UNL1     0.0789
     41 H         0.440579   7.575738   1.112703 H        1 UNL1     0.0623
     42 H         -0.907028   8.691618   -0.619621 H        1 UNL1     0.0654
     43 H         2.002489   11.841392   -0.870649 H        1 UNL1     0.0654
     44 H         3.336181   10.782784   0.863297 H        1 UNL1     0.0623
     45 H         0.183732   10.80623   -2.684301 H        1 UNL1     0.2921
     46 H         -1.977546   6.936796   5.059549 H        1 UNL1     0.2922
     47 H         0.548776   3.257816   0.345987 H        1 UNL1     0.2126
     48 H         1.780159   -1.152688   0.01058 H        1 UNL1     0.2101
     49 H         -1.702966   1.40992   2.224898 H        1 UNL1     0.2100
     50 H         1.227113   -0.902122   3.855084 H        1 UNL1     0.2102
@<TRIPOS>BOND
     1     1     2    1
     2     1     6    1
     3     2     3    1
     4     3     4    1
     5     3    29    1
     6     3    33    1
     7     4     5    1
     8     5     6    1
     9     5     7    1
    10     5    35    1
    11     7     8    1
    12     8     9   ar
    13     8    13   ar
    14     9    10   ar
    15     9    36    1
    16    10    11   ar
    17    10    26    1
    18    11    12   ar
    19    11    14    1
    20    12    13   ar
    21    12    17    1
    22    13    37    1
    23    14    15    1
    24    14    25    2
    25    15    16    1
    26    15    38    1
    27    15    39    1
    28    16    17    1
    29    16    18    1
    30    16    40    1
    31    18    19   ar
    32    18    23   ar
    33    19    20   ar
    34    19    41    1
    35    20    21   ar
    36    20    42    1
    37    21    22   ar
    38    21    24    1
    39    22    23   ar
    40    22    43    1
    41    23    44    1
    42    24    45    1
    43    26    46    1
    44    27    47    1
    45    28    48    1
    46    29    49    1
    47    30    50    1
    48     1    31    1
    49     1    27    1
    50     2    32    1
    51     2    28    1
    52     4    34    1
    53     4    30    1
