@<TRIPOS>MOLECULE
*****
 50 53 0 0 0
SMALL
GASTEIGER

@<TRIPOS>ATOM
     1 C         2.066066   0.03288   0.707879 C.3        1 UNL1     0.1889
     2 C         0.661667   -0.622137   0.61539 C.3        1 UNL1     0.1342
     3 C         -0.014031   -0.884438   1.970047 C.3        1 UNL1     0.1174
     4 C         0.983334   -1.266031   3.066755 C.3        1 UNL1     0.1456
     5 C         2.212704   -0.339628   3.094876 C.3        1 UNL1     0.2326
     6 O         2.857556   -0.348973   1.823284 O.3        1 UNL1     -0.3076
     7 O         1.920296   0.986578   3.571316 O.3        1 UNL1     -0.4605
     8 C         2.013526   2.001143   2.635637 C.ar        1 UNL1     0.1310
     9 C         1.202135   3.140006   2.591662 C.ar        1 UNL1     0.0226
     10 C         1.386558   4.122634   1.611696 C.ar        1 UNL1     0.1343
     11 C         2.403293   4.00161   0.665417 C.ar        1 UNL1     0.1007
     12 C         3.193534   2.849122   0.674041 C.ar        1 UNL1     0.1389
     13 C         3.006187   1.859979   1.657875 C.ar        1 UNL1     0.0229
     14 C         2.696448   5.049084   -0.340074 C.2        1 UNL1     0.1740
     15 C         3.958241   4.856777   -1.129026 C.3        1 UNL1     0.0520
     16 C         4.090192   3.379848   -1.474315 C.3        1 UNL1     0.1322
     17 O         4.150987   2.57635   -0.275246 O.3        1 UNL1     -0.4828
     18 C         3.073406   2.896227   -2.511128 C.ar        1 UNL1     -0.0067
     19 C         2.027258   3.754374   -2.90783 C.ar        1 UNL1     -0.0516
     20 C         1.053447   3.326671   -3.818173 C.ar        1 UNL1     -0.0198
     21 C         1.110383   2.043569   -4.33221 C.ar        1 UNL1     0.1169
     22 C         2.147196   1.186683   -3.986372 C.ar        1 UNL1     -0.0198
     23 C         3.131492   1.620425   -3.090221 C.ar        1 UNL1     -0.0516
     24 O         0.123326   1.649477   -5.187084 O.3        1 UNL1     -0.5068
     25 O         2.012473   6.059104   -0.483329 O.2        1 UNL1     -0.2917
     26 O         0.560736   5.208668   1.623267 O.3        1 UNL1     -0.5058
     27 O         2.045315   1.441245   0.537988 O.3        1 UNL1     -0.3648
     28 O         0.793485   -1.891733   -0.050535 O.3        1 UNL1     -0.3841
     29 O         -0.850641   0.213321   2.340374 O.3        1 UNL1     -0.3863
     30 O         1.429269   -2.622512   2.850443 O.3        1 UNL1     -0.3829
     31 H         2.639434   -0.333855   -0.150511 H        1 UNL1     0.0937
     32 H         -0.0   0.0   0.0 H        1 UNL1     0.0671
     33 H         -0.692828   -1.73978   1.846175 H        1 UNL1     0.0649
     34 H         0.490513   -1.242774   4.045012 H        1 UNL1     0.0683
     35 H         2.895217   -0.827211   3.802206 H        1 UNL1     0.1085
     36 H         0.430941   3.319655   3.33268 H        1 UNL1     0.0691
     37 H         3.633888   0.971589   1.642142 H        1 UNL1     0.0691
     38 H         4.793375   5.192664   -0.50512 H        1 UNL1     0.0385
     39 H         3.922795   5.489327   -2.02256 H        1 UNL1     0.0385
     40 H         5.072942   3.244195   -1.945824 H        1 UNL1     0.0789
     41 H         1.955219   4.763106   -2.511699 H        1 UNL1     0.0623
     42 H         0.245008   3.993712   -4.107128 H        1 UNL1     0.0654
     43 H         2.209799   0.184989   -4.394539 H        1 UNL1     0.0654
     44 H         3.932895   0.928273   -2.85038 H        1 UNL1     0.0623
     45 H         -0.7328   1.779961   -4.748064 H        1 UNL1     0.2921
     46 H         1.091556   6.01928   1.572761 H        1 UNL1     0.2922
     47 H         2.100576   1.666029   -0.401309 H        1 UNL1     0.2126
     48 H         1.578207   -1.824545   -0.627968 H        1 UNL1     0.2101
     49 H         -0.393068   1.05091   2.164685 H        1 UNL1     0.2100
     50 H         0.672045   -3.219845   3.022252 H        1 UNL1     0.2102
@<TRIPOS>BOND
     1     1     2    1
     2     1     6    1
     3     2     3    1
     4     3     4    1
     5     3    29    1
     6     3    33    1
     7     4     5    1
     8     5     6    1
     9     5     7    1
    10     5    35    1
    11     7     8    1
    12     8     9   ar
    13     8    13   ar
    14     9    10   ar
    15     9    36    1
    16    10    11   ar
    17    10    26    1
    18    11    12   ar
    19    11    14    1
    20    12    13   ar
    21    12    17    1
    22    13    37    1
    23    14    15    1
    24    14    25    2
    25    15    16    1
    26    15    38    1
    27    15    39    1
    28    16    17    1
    29    16    18    1
    30    16    40    1
    31    18    19   ar
    32    18    23   ar
    33    19    20   ar
    34    19    41    1
    35    20    21   ar
    36    20    42    1
    37    21    22   ar
    38    21    24    1
    39    22    23   ar
    40    22    43    1
    41    23    44    1
    42    24    45    1
    43    26    46    1
    44    27    47    1
    45    28    48    1
    46    29    49    1
    47    30    50    1
    48     1    31    1
    49     1    27    1
    50     2    32    1
    51     2    28    1
    52     4    34    1
    53     4    30    1
