@<TRIPOS>MOLECULE
*****
 50 53 0 0 0
SMALL
GASTEIGER

@<TRIPOS>ATOM
     1 C         0.011961   -1.145924   1.859441 C.3        1 UNL1     0.1889
     2 C         -0.261594   -1.01061   0.337338 C.3        1 UNL1     0.1342
     3 C         -1.705727   -1.321673   -0.084783 C.3        1 UNL1     0.1174
     4 C         -2.342917   -2.432598   0.75364 C.3        1 UNL1     0.1456
     5 C         -2.108286   -2.241176   2.263167 C.3        1 UNL1     0.2326
     6 O         -0.710075   -2.166947   2.532174 O.3        1 UNL1     -0.3076
     7 O         -2.851493   -1.143793   2.824162 O.3        1 UNL1     -0.4605
     8 C         -3.267244   -1.300042   4.134225 C.ar        1 UNL1     0.1310
     9 C         -3.860694   -2.450756   4.664296 C.ar        1 UNL1     0.0226
     10 C         -4.232543   -2.517951   6.0123 C.ar        1 UNL1     0.1343
     11 C         -3.997968   -1.443588   6.869365 C.ar        1 UNL1     0.1007
     12 C         -3.443533   -0.274131   6.342341 C.ar        1 UNL1     0.1389
     13 C         -3.072151   -0.205863   4.9863 C.ar        1 UNL1     0.0229
     14 C         -4.293907   -1.491145   8.31999 C.2        1 UNL1     0.1740
     15 C         -3.774625   -0.337434   9.12674 C.3        1 UNL1     0.0520
     16 C         -3.979909   0.94129   8.326315 C.3        1 UNL1     0.1322
     17 O         -3.268645   0.879843   7.07037 O.3        1 UNL1     -0.4828
     18 C         -5.446078   1.363613   8.205016 C.ar        1 UNL1     -0.0067
     19 C         -5.808392   2.343794   7.258344 C.ar        1 UNL1     -0.0516
     20 C         -7.132272   2.786979   7.153985 C.ar        1 UNL1     -0.0198
     21 C         -8.099546   2.264309   7.993642 C.ar        1 UNL1     0.1169
     22 C         -7.780007   1.273731   8.913147 C.ar        1 UNL1     -0.0198
     23 C         -6.459753   0.817083   9.005118 C.ar        1 UNL1     -0.0516
     24 O         -9.370719   2.747537   7.888712 O.3        1 UNL1     -0.5068
     25 O         -4.854341   -2.438441   8.864994 O.2        1 UNL1     -0.2917
     26 O         -4.807885   -3.66872   6.466497 O.3        1 UNL1     -0.5058
     27 O         -0.052259   0.08766   2.557248 O.3        1 UNL1     -0.3648
     28 O         0.596976   -1.929268   -0.363827 O.3        1 UNL1     -0.3841
     29 O         -2.493308   -0.129625   -0.114272 O.3        1 UNL1     -0.3863
     30 O         -1.787283   -3.704702   0.355256 O.3        1 UNL1     -0.3829
     31 H         1.05629   -1.460183   1.962866 H        1 UNL1     0.0937
     32 H         0.0   0.0   0.0 H        1 UNL1     0.0671
     33 H         -1.681584   -1.681177   -1.123 H        1 UNL1     0.0649
     34 H         -3.419973   -2.477844   0.557928 H        1 UNL1     0.0683
     35 H         -2.469383   -3.177031   2.707758 H        1 UNL1     0.1085
     36 H         -4.018515   -3.339519   4.063202 H        1 UNL1     0.0691
     37 H         -2.643402   0.716442   4.600268 H        1 UNL1     0.0691
     38 H         -2.711219   -0.518108   9.316613 H        1 UNL1     0.0385
     39 H         -4.294427   -0.310579   10.090515 H        1 UNL1     0.0385
     40 H         -3.488741   1.752498   8.880585 H        1 UNL1     0.0789
     41 H         -5.065949   2.776285   6.593978 H        1 UNL1     0.0623
     42 H         -7.39685   3.551889   6.428091 H        1 UNL1     0.0654
     43 H         -8.53258   0.846755   9.565248 H        1 UNL1     0.0654
     44 H         -6.247822   0.034636   9.72741 H        1 UNL1     0.0623
     45 H         -9.358446   3.693205   8.108437 H        1 UNL1     0.2921
     46 H         -4.305327   -4.003871   7.225787 H        1 UNL1     0.2922
     47 H         0.543508   0.733074   2.151831 H        1 UNL1     0.2126
     48 H         1.511395   -1.611735   -0.234438 H        1 UNL1     0.2101
     49 H         -2.211065   0.434222   -0.851978 H        1 UNL1     0.2100
     50 H         -2.087026   -3.891772   -0.558457 H        1 UNL1     0.2102
@<TRIPOS>BOND
     1     1     2    1
     2     1     6    1
     3     2     3    1
     4     3     4    1
     5     3    29    1
     6     3    33    1
     7     4     5    1
     8     5     6    1
     9     5     7    1
    10     5    35    1
    11     7     8    1
    12     8     9   ar
    13     8    13   ar
    14     9    10   ar
    15     9    36    1
    16    10    11   ar
    17    10    26    1
    18    11    12   ar
    19    11    14    1
    20    12    13   ar
    21    12    17    1
    22    13    37    1
    23    14    15    1
    24    14    25    2
    25    15    16    1
    26    15    38    1
    27    15    39    1
    28    16    17    1
    29    16    18    1
    30    16    40    1
    31    18    19   ar
    32    18    23   ar
    33    19    20   ar
    34    19    41    1
    35    20    21   ar
    36    20    42    1
    37    21    22   ar
    38    21    24    1
    39    22    23   ar
    40    22    43    1
    41    23    44    1
    42    24    45    1
    43    26    46    1
    44    27    47    1
    45    28    48    1
    46    29    49    1
    47    30    50    1
    48     1    31    1
    49     1    27    1
    50     2    32    1
    51     2    28    1
    52     4    34    1
    53     4    30    1
