@<TRIPOS>MOLECULE
*****
 50 53 0 0 0
SMALL
GASTEIGER

@<TRIPOS>ATOM
     1 C         -0.289383   -1.360401   1.684153 C.3        1 UNL1     0.1889
     2 C         -0.45197   -0.981919   0.187404 C.3        1 UNL1     0.1342
     3 C         -1.903121   -0.970111   -0.317063 C.3        1 UNL1     0.1174
     4 C         -2.769103   -2.047036   0.341285 C.3        1 UNL1     0.1456
     5 C         -2.587052   -2.098292   1.869223 C.3        1 UNL1     0.2326
     6 O         -1.214078   -2.312902   2.188212 O.3        1 UNL1     -0.3076
     7 O         -3.156616   -0.966975   2.552627 O.3        1 UNL1     -0.4605
     8 C         -3.639515   -1.208265   3.82625 C.ar        1 UNL1     0.1310
     9 C         -4.440955   -2.293436   4.196921 C.ar        1 UNL1     0.0226
     10 C         -4.866638   -2.460132   5.52014 C.ar        1 UNL1     0.1343
     11 C         -4.481083   -1.557706   6.510501 C.ar        1 UNL1     0.1007
     12 C         -3.714925   -0.447757   6.144716 C.ar        1 UNL1     0.1389
     13 C         -3.28923   -0.278939   4.813658 C.ar        1 UNL1     0.0229
     14 C         -4.832315   -1.731207   7.939027 C.2        1 UNL1     0.1740
     15 C         -4.151026   -0.79504   8.893483 C.3        1 UNL1     0.0520
     16 C         -4.104142   0.588701   8.260222 C.3        1 UNL1     0.1322
     17 O         -3.369802   0.558823   7.016469 O.3        1 UNL1     -0.4828
     18 C         -5.470293   1.273479   8.173997 C.ar        1 UNL1     -0.0067
     19 C         -5.877744   1.855166   6.955868 C.ar        1 UNL1     -0.0516
     20 C         -7.100094   2.530275   6.855629 C.ar        1 UNL1     -0.0198
     21 C         -7.918763   2.636724   7.965709 C.ar        1 UNL1     0.1169
     22 C         -7.56031   2.045556   9.17023 C.ar        1 UNL1     -0.0198
     23 C         -6.346482   1.354516   9.265841 C.ar        1 UNL1     -0.0516
     24 O         -9.084191   3.334147   7.840096 O.3        1 UNL1     -0.5068
     25 O         -5.566722   -2.625333   8.350936 O.2        1 UNL1     -0.2917
     26 O         -5.647559   -3.539173   5.815805 O.3        1 UNL1     -0.5058
     27 O         -0.175064   -0.236448   2.542317 O.3        1 UNL1     -0.3648
     28 O         0.269835   -1.941614   -0.606755 O.3        1 UNL1     -0.3841
     29 O         -2.467688   0.33802   -0.206649 O.3        1 UNL1     -0.3863
     30 O         -2.423294   -3.335959   -0.210786 O.3        1 UNL1     -0.3829
     31 H         0.676846   -1.868534   1.775158 H        1 UNL1     0.0937
     32 H         0.0   0.0   0.0 H        1 UNL1     0.0671
     33 H         -1.885725   -1.190471   -1.393566 H        1 UNL1     0.0649
     34 H         -3.825261   -1.871576   0.108595 H        1 UNL1     0.0683
     35 H         -3.129625   -3.003276   2.17005 H        1 UNL1     0.1085
     36 H         -4.728087   -3.059638   3.485155 H        1 UNL1     0.0691
     37 H         -2.694427   0.594275   4.554429 H        1 UNL1     0.0691
     38 H         -3.142138   -1.181569   9.073118 H        1 UNL1     0.0385
     39 H         -4.692441   -0.7965   9.845662 H        1 UNL1     0.0385
     40 H         -3.500568   1.226428   8.920163 H        1 UNL1     0.0789
     41 H         -5.248884   1.793307   6.072489 H        1 UNL1     0.0623
     42 H         -7.397662   2.984855   5.913916 H        1 UNL1     0.0654
     43 H         -8.200828   2.109924   10.041725 H        1 UNL1     0.0654
     44 H         -6.103095   0.895879   10.219392 H        1 UNL1     0.0623
     45 H         -8.869576   4.247719   7.591011 H        1 UNL1     0.2921
     46 H         -5.225985   -4.061339   6.51654 H        1 UNL1     0.2922
     47 H         0.558564   0.327299   2.259757 H        1 UNL1     0.2126
     48 H         1.207675   -1.874206   -0.342852 H        1 UNL1     0.2101
     49 H         -2.04547   0.934641   -0.84506 H        1 UNL1     0.2100
     50 H         -2.675218   -3.335885   -1.157489 H        1 UNL1     0.2102
@<TRIPOS>BOND
     1     1     2    1
     2     1     6    1
     3     2     3    1
     4     3     4    1
     5     3    29    1
     6     3    33    1
     7     4     5    1
     8     5     6    1
     9     5     7    1
    10     5    35    1
    11     7     8    1
    12     8     9   ar
    13     8    13   ar
    14     9    10   ar
    15     9    36    1
    16    10    11   ar
    17    10    26    1
    18    11    12   ar
    19    11    14    1
    20    12    13   ar
    21    12    17    1
    22    13    37    1
    23    14    15    1
    24    14    25    2
    25    15    16    1
    26    15    38    1
    27    15    39    1
    28    16    17    1
    29    16    18    1
    30    16    40    1
    31    18    19   ar
    32    18    23   ar
    33    19    20   ar
    34    19    41    1
    35    20    21   ar
    36    20    42    1
    37    21    22   ar
    38    21    24    1
    39    22    23   ar
    40    22    43    1
    41    23    44    1
    42    24    45    1
    43    26    46    1
    44    27    47    1
    45    28    48    1
    46    29    49    1
    47    30    50    1
    48     1    31    1
    49     1    27    1
    50     2    32    1
    51     2    28    1
    52     4    34    1
    53     4    30    1
