@<TRIPOS>MOLECULE
*****
 50 53 0 0 0
SMALL
GASTEIGER

@<TRIPOS>ATOM
     1 C         -1.021079   1.880981   -0.436018 C.3        1 UNL1     0.1889
     2 C         0.070875   1.054318   0.294876 C.3        1 UNL1     0.1342
     3 C         0.028848   1.149855   1.827707 C.3        1 UNL1     0.1174
     4 C         -0.404688   2.531255   2.324594 C.3        1 UNL1     0.1456
     5 C         -1.64377   3.063569   1.581842 C.3        1 UNL1     0.2326
     6 O         -1.388752   3.106581   0.179706 O.3        1 UNL1     -0.3076
     7 O         -2.856446   2.363857   1.915219 O.3        1 UNL1     -0.4605
     8 C         -2.722638   1.013825   2.185475 C.ar        1 UNL1     0.1310
     9 C         -2.889339   -0.018963   1.256572 C.ar        1 UNL1     0.0226
     10 C         -2.714955   -1.358412   1.624496 C.ar        1 UNL1     0.1343
     11 C         -2.345959   -1.696446   2.92581 C.ar        1 UNL1     0.1007
     12 C         -2.216693   -0.676627   3.872405 C.ar        1 UNL1     0.1389
     13 C         -2.394675   0.669919   3.502854 C.ar        1 UNL1     0.0229
     14 C         -2.066817   -3.088618   3.347817 C.2        1 UNL1     0.1740
     15 C         -1.46853   -3.245057   4.714978 C.3        1 UNL1     0.0520
     16 C         -2.153141   -2.263085   5.65572 C.3        1 UNL1     0.1322
     17 O         -1.962831   -0.903728   5.205164 O.3        1 UNL1     -0.4828
     18 C         -3.604559   -2.627537   5.977098 C.ar        1 UNL1     -0.0067
     19 C         -4.650294   -1.976215   5.291218 C.ar        1 UNL1     -0.0516
     20 C         -5.989077   -2.251535   5.594241 C.ar        1 UNL1     -0.0198
     21 C         -6.294503   -3.168636   6.583921 C.ar        1 UNL1     0.1169
     22 C         -5.287054   -3.850778   7.253673 C.ar        1 UNL1     -0.0198
     23 C         -3.948399   -3.58919   6.938031 C.ar        1 UNL1     -0.0516
     24 O         -7.609082   -3.383038   6.877716 O.3        1 UNL1     -0.5068
     25 O         -2.229171   -4.062142   2.616806 O.2        1 UNL1     -0.2917
     26 O         -2.89346   -2.31806   0.671188 O.3        1 UNL1     -0.5058
     27 O         -2.158919   1.116467   -0.801563 O.3        1 UNL1     -0.3648
     28 O         1.362315   1.529171   -0.128683 O.3        1 UNL1     -0.3841
     29 O         -0.756249   0.091405   2.380373 O.3        1 UNL1     -0.3863
     30 O         0.682757   3.463633   2.140677 O.3        1 UNL1     -0.3829
     31 H         -0.588334   2.194557   -1.392304 H        1 UNL1     0.0937
     32 H         0.0   -0.0   0.0 H        1 UNL1     0.0671
     33 H         1.048479   0.983001   2.202182 H        1 UNL1     0.0649
     34 H         -0.615821   2.49294   3.399004 H        1 UNL1     0.0683
     35 H         -1.730017   4.103029   1.922375 H        1 UNL1     0.1085
     36 H         -3.121108   0.181653   0.216305 H        1 UNL1     0.0691
     37 H         -2.289441   1.445075   4.258865 H        1 UNL1     0.0691
     38 H         -0.397134   -3.032776   4.633897 H        1 UNL1     0.0385
     39 H         -1.587655   -4.283565   5.04222 H        1 UNL1     0.0385
     40 H         -1.622054   -2.310924   6.616021 H        1 UNL1     0.0789
     41 H         -4.436679   -1.24552   4.516554 H        1 UNL1     0.0623
     42 H         -6.78638   -1.733975   5.066554 H        1 UNL1     0.0654
     43 H         -5.515264   -4.581968   8.019957 H        1 UNL1     0.0654
     44 H         -3.187279   -4.148193   7.473807 H        1 UNL1     0.0623
     45 H         -8.149119   -2.836979   6.283665 H        1 UNL1     0.2921
     46 H         -3.51237   -1.994027   -0.002136 H        1 UNL1     0.2922
     47 H         -2.228204   1.058803   -1.764753 H        1 UNL1     0.2126
     48 H         1.8808   1.69099   0.682933 H        1 UNL1     0.2101
     49 H         -0.196788   -0.685036   2.54142 H        1 UNL1     0.2100
     50 H         0.393517   4.335264   2.481723 H        1 UNL1     0.2102
@<TRIPOS>BOND
     1     1     2    1
     2     1     6    1
     3     2     3    1
     4     3     4    1
     5     3    29    1
     6     3    33    1
     7     4     5    1
     8     5     6    1
     9     5     7    1
    10     5    35    1
    11     7     8    1
    12     8     9   ar
    13     8    13   ar
    14     9    10   ar
    15     9    36    1
    16    10    11   ar
    17    10    26    1
    18    11    12   ar
    19    11    14    1
    20    12    13   ar
    21    12    17    1
    22    13    37    1
    23    14    15    1
    24    14    25    2
    25    15    16    1
    26    15    38    1
    27    15    39    1
    28    16    17    1
    29    16    18    1
    30    16    40    1
    31    18    19   ar
    32    18    23   ar
    33    19    20   ar
    34    19    41    1
    35    20    21   ar
    36    20    42    1
    37    21    22   ar
    38    21    24    1
    39    22    23   ar
    40    22    43    1
    41    23    44    1
    42    24    45    1
    43    26    46    1
    44    27    47    1
    45    28    48    1
    46    29    49    1
    47    30    50    1
    48     1    31    1
    49     1    27    1
    50     2    32    1
    51     2    28    1
    52     4    34    1
    53     4    30    1
