@<TRIPOS>MOLECULE
*****
 50 53 0 0 0
SMALL
GASTEIGER

@<TRIPOS>ATOM
     1 C         -0.694418   -1.040359   1.790598 C.3        1 UNL1     0.1889
     2 C         -0.552743   -0.914121   0.249841 C.3        1 UNL1     0.1342
     3 C         -1.882804   -0.921435   -0.519151 C.3        1 UNL1     0.1174
     4 C         -2.934294   -1.830218   0.12241 C.3        1 UNL1     0.1456
     5 C         -3.037356   -1.629924   1.645441 C.3        1 UNL1     0.2326
     6 O         -1.765854   -1.850123   2.251795 O.3        1 UNL1     -0.3076
     7 O         -3.632762   -0.374167   2.019457 O.3        1 UNL1     -0.4605
     8 C         -4.362827   -0.375499   3.194417 C.ar        1 UNL1     0.1310
     9 C         -5.303175   -1.343562   3.563063 C.ar        1 UNL1     0.0226
     10 C         -5.980552   -1.265894   4.785778 C.ar        1 UNL1     0.1343
     11 C         -5.716332   -0.230113   5.680868 C.ar        1 UNL1     0.1007
     12 C         -4.809473   0.764863   5.306152 C.ar        1 UNL1     0.1389
     13 C         -4.13045   0.687972   4.075523 C.ar        1 UNL1     0.0229
     14 C         -6.341033   -0.145111   7.02127 C.2        1 UNL1     0.1740
     15 C         -5.777848   0.903669   7.934743 C.3        1 UNL1     0.0520
     16 C         -5.503494   2.158101   7.116765 C.3        1 UNL1     0.1322
     17 O         -4.554387   1.885311   6.062322 O.3        1 UNL1     -0.4828
     18 C         -6.770567   2.883695   6.657674 C.ar        1 UNL1     -0.0067
     19 C         -6.888001   3.288052   5.311971 C.ar        1 UNL1     -0.0516
     20 C         -8.012456   3.995289   4.86995 C.ar        1 UNL1     -0.0198
     21 C         -9.02065   4.309987   5.763447 C.ar        1 UNL1     0.1169
     22 C         -8.949213   3.896432   7.087346 C.ar        1 UNL1     -0.0198
     23 C         -7.833409   3.173153   7.525416 C.ar        1 UNL1     -0.0516
     24 O         -10.082803   5.032685   5.305257 O.3        1 UNL1     -0.5068
     25 O         -7.208253   -0.92137   7.41349 O.2        1 UNL1     -0.2917
     26 O         -6.886302   -2.241454   5.084917 O.3        1 UNL1     -0.5058
     27 O         -0.651703   0.206394   2.466296 O.3        1 UNL1     -0.3648
     28 O         0.225249   -2.026695   -0.229339 O.3        1 UNL1     -0.3841
     29 O         -2.355599   0.410988   -0.727108 O.3        1 UNL1     -0.3863
     30 O         -2.594239   -3.208588   -0.142446 O.3        1 UNL1     -0.3829
     31 H         0.197153   -1.569507   2.144413 H        1 UNL1     0.0937
     32 H         0.0   0.0   -0.0 H        1 UNL1     0.0671
     33 H         -1.687146   -1.321721   -1.523744 H        1 UNL1     0.0649
     34 H         -3.913902   -1.648469   -0.333371 H        1 UNL1     0.0683
     35 H         -3.693602   -2.444913   1.975611 H        1 UNL1     0.1085
     36 H         -5.512255   -2.203327   2.935998 H        1 UNL1     0.0691
     37 H         -3.430124   1.475892   3.806788 H        1 UNL1     0.0691
     38 H         -4.85432   0.504577   8.36758 H        1 UNL1     0.0385
     39 H         -6.486052   1.087548   8.749859 H        1 UNL1     0.0385
     40 H         -4.985106   2.867467   7.776002 H        1 UNL1     0.0789
     41 H         -6.106079   3.061218   4.593086 H        1 UNL1     0.0623
     42 H         -8.085828   4.311909   3.832463 H        1 UNL1     0.0654
     43 H         -9.740036   4.124442   7.791988 H        1 UNL1     0.0654
     44 H         -7.815634   2.856865   8.56392 H        1 UNL1     0.0623
     45 H         -9.755898   5.889123   4.985315 H        1 UNL1     0.2921
     46 H         -6.646812   -2.657762   5.927973 H        1 UNL1     0.2922
     47 H         0.160302   0.681594   2.241147 H        1 UNL1     0.2126
     48 H         1.108294   -1.9475   0.180162 H        1 UNL1     0.2101
     49 H         -1.784691   0.86793   -1.365122 H        1 UNL1     0.2100
     50 H         -2.674696   -3.358976   -1.107134 H        1 UNL1     0.2102
@<TRIPOS>BOND
     1     1     2    1
     2     1     6    1
     3     2     3    1
     4     3     4    1
     5     3    29    1
     6     3    33    1
     7     4     5    1
     8     5     6    1
     9     5     7    1
    10     5    35    1
    11     7     8    1
    12     8     9   ar
    13     8    13   ar
    14     9    10   ar
    15     9    36    1
    16    10    11   ar
    17    10    26    1
    18    11    12   ar
    19    11    14    1
    20    12    13   ar
    21    12    17    1
    22    13    37    1
    23    14    15    1
    24    14    25    2
    25    15    16    1
    26    15    38    1
    27    15    39    1
    28    16    17    1
    29    16    18    1
    30    16    40    1
    31    18    19   ar
    32    18    23   ar
    33    19    20   ar
    34    19    41    1
    35    20    21   ar
    36    20    42    1
    37    21    22   ar
    38    21    24    1
    39    22    23   ar
    40    22    43    1
    41    23    44    1
    42    24    45    1
    43    26    46    1
    44    27    47    1
    45    28    48    1
    46    29    49    1
    47    30    50    1
    48     1    31    1
    49     1    27    1
    50     2    32    1
    51     2    28    1
    52     4    34    1
    53     4    30    1
