@<TRIPOS>MOLECULE
*****
 50 53 0 0 0
SMALL
GASTEIGER

@<TRIPOS>ATOM
     1 C         -0.334964   -1.330074   1.699855 C.3        1 UNL1     0.1889
     2 C         -0.464128   -0.97491   0.19416 C.3        1 UNL1     0.1342
     3 C         -1.904679   -0.959321   -0.339724 C.3        1 UNL1     0.1174
     4 C         -2.793016   -2.018034   0.318381 C.3        1 UNL1     0.1456
     5 C         -2.64219   -2.045676   1.850325 C.3        1 UNL1     0.2326
     6 O         -1.27782   -2.266431   2.200509 O.3        1 UNL1     -0.3076
     7 O         -3.215578   -0.898576   2.503555 O.3        1 UNL1     -0.4605
     8 C         -3.727345   -1.115181   3.770324 C.ar        1 UNL1     0.1310
     9 C         -4.54634   -2.187148   4.141048 C.ar        1 UNL1     0.0226
     10 C         -5.001264   -2.328885   5.457429 C.ar        1 UNL1     0.1343
     11 C         -4.628341   -1.414185   6.441346 C.ar        1 UNL1     0.1007
     12 C         -3.844495   -0.317054   6.074367 C.ar        1 UNL1     0.1389
     13 C         -3.389375   -0.173321   4.750117 C.ar        1 UNL1     0.0229
     14 C         -5.01111   -1.561701   7.86468 C.2        1 UNL1     0.1740
     15 C         -4.341466   -0.616458   8.818431 C.3        1 UNL1     0.0520
     16 C         -4.268566   0.756509   8.164516 C.3        1 UNL1     0.1322
     17 O         -3.508542   0.700244   6.937215 O.3        1 UNL1     -0.4828
     18 C         -5.626252   1.451889   8.038581 C.ar        1 UNL1     -0.0067
     19 C         -6.001454   2.020054   6.803824 C.ar        1 UNL1     -0.0516
     20 C         -7.215158   2.704319   6.667203 C.ar        1 UNL1     -0.0198
     21 C         -8.057138   2.833367   7.75727 C.ar        1 UNL1     0.1169
     22 C         -7.730704   2.255958   8.977466 C.ar        1 UNL1     -0.0198
     23 C         -6.525561   1.555775   9.10949 C.ar        1 UNL1     -0.0516
     24 O         -9.213175   3.539092   7.59624 O.3        1 UNL1     -0.5068
     25 O         -5.762201   -2.442588   8.275027 O.2        1 UNL1     -0.2917
     26 O         -5.798111   -3.396104   5.75351 O.3        1 UNL1     -0.5058
     27 O         -0.228212   -0.193155   2.54176 O.3        1 UNL1     -0.3648
     28 O         0.265178   -1.953505   -0.569496 O.3        1 UNL1     -0.3841
     29 O         -2.460014   0.355101   -0.262064 O.3        1 UNL1     -0.3863
     30 O         -2.447335   -3.318692   -0.205529 O.3        1 UNL1     -0.3829
     31 H         0.624806   -1.844665   1.818668 H        1 UNL1     0.0937
     32 H         0.0   0.0   0.0 H        1 UNL1     0.0671
     33 H         -1.867538   -1.197487   -1.411926 H        1 UNL1     0.0649
     34 H         -3.842722   -1.83764   0.061521 H        1 UNL1     0.0683
     35 H         -3.198515   -2.941045   2.154783 H        1 UNL1     0.1085
     36 H         -4.825472   -2.962063   3.435561 H        1 UNL1     0.0691
     37 H         -2.781254   0.690335   4.489771 H        1 UNL1     0.0691
     38 H         -3.340174   -1.008981   9.025469 H        1 UNL1     0.0385
     39 H         -4.902773   -0.597896   9.75884 H        1 UNL1     0.0385
     40 H         -3.673166   1.39934   8.826927 H        1 UNL1     0.0789
     41 H         -5.353831   1.940406   5.935555 H        1 UNL1     0.0623
     42 H         -7.487757   3.148293   5.712955 H        1 UNL1     0.0654
     43 H         -8.389697   2.338051   9.833561 H        1 UNL1     0.0654
     44 H         -6.307426   1.10838   10.074425 H        1 UNL1     0.0623
     45 H         -8.984887   4.447198   7.33944 H        1 UNL1     0.2921
     46 H         -5.39618   -3.910708   6.471177 H        1 UNL1     0.2922
     47 H         0.515801   0.359746   2.264984 H        1 UNL1     0.2126
     48 H         1.198067   -1.889575   -0.287782 H        1 UNL1     0.2101
     49 H         -2.020011   0.937569   -0.901535 H        1 UNL1     0.2100
     50 H         -2.680154   -3.332085   -1.157017 H        1 UNL1     0.2102
@<TRIPOS>BOND
     1     1     2    1
     2     1     6    1
     3     2     3    1
     4     3     4    1
     5     3    29    1
     6     3    33    1
     7     4     5    1
     8     5     6    1
     9     5     7    1
    10     5    35    1
    11     7     8    1
    12     8     9   ar
    13     8    13   ar
    14     9    10   ar
    15     9    36    1
    16    10    11   ar
    17    10    26    1
    18    11    12   ar
    19    11    14    1
    20    12    13   ar
    21    12    17    1
    22    13    37    1
    23    14    15    1
    24    14    25    2
    25    15    16    1
    26    15    38    1
    27    15    39    1
    28    16    17    1
    29    16    18    1
    30    16    40    1
    31    18    19   ar
    32    18    23   ar
    33    19    20   ar
    34    19    41    1
    35    20    21   ar
    36    20    42    1
    37    21    22   ar
    38    21    24    1
    39    22    23   ar
    40    22    43    1
    41    23    44    1
    42    24    45    1
    43    26    46    1
    44    27    47    1
    45    28    48    1
    46    29    49    1
    47    30    50    1
    48     1    31    1
    49     1    27    1
    50     2    32    1
    51     2    28    1
    52     4    34    1
    53     4    30    1
