@<TRIPOS>MOLECULE
*****
 50 53 0 0 0
SMALL
GASTEIGER

@<TRIPOS>ATOM
     1 C         -1.656455   -0.205049   1.40887 C.3        1 UNL1     0.1889
     2 C         -0.145782   -0.051277   1.086131 C.3        1 UNL1     0.1342
     3 C         0.748708   -1.160816   1.659956 C.3        1 UNL1     0.1174
     4 C         0.26205   -1.672609   3.018025 C.3        1 UNL1     0.1456
     5 C         -1.252115   -1.950723   3.035877 C.3        1 UNL1     0.2326
     6 O         -1.967176   -0.771704   2.673287 O.3        1 UNL1     -0.3076
     7 O         -1.632352   -3.103438   2.26258 O.3        1 UNL1     -0.4605
     8 C         -2.189223   -4.152428   2.971834 C.ar        1 UNL1     0.1310
     9 C         -2.390547   -4.178229   4.356068 C.ar        1 UNL1     0.0226
     10 C         -2.979803   -5.283599   4.981238 C.ar        1 UNL1     0.1343
     11 C         -3.404177   -6.381207   4.233573 C.ar        1 UNL1     0.1007
     12 C         -3.171189   -6.384379   2.855716 C.ar        1 UNL1     0.1389
     13 C         -2.576275   -5.27393   2.227694 C.ar        1 UNL1     0.0229
     14 C         -4.108167   -7.539236   4.831503 C.2        1 UNL1     0.1740
     15 C         -4.688817   -8.520443   3.855989 C.3        1 UNL1     0.0520
     16 C         -3.698567   -8.708851   2.714996 C.3        1 UNL1     0.1322
     17 O         -3.449916   -7.45616   2.039711 O.3        1 UNL1     -0.4828
     18 C         -2.435632   -9.475244   3.115443 C.ar        1 UNL1     -0.0067
     19 C         -1.938143   -10.483296   2.264237 C.ar        1 UNL1     -0.0516
     20 C         -0.813018   -11.235387   2.622586 C.ar        1 UNL1     -0.0198
     21 C         -0.182274   -10.994622   3.830072 C.ar        1 UNL1     0.1169
     22 C         -0.628509   -9.986159   4.674296 C.ar        1 UNL1     -0.0198
     23 C         -1.742527   -9.221521   4.307762 C.ar        1 UNL1     -0.0516
     24 O         0.887709   -11.772495   4.162413 O.3        1 UNL1     -0.5068
     25 O         -4.289212   -7.67044   6.039184 O.2        1 UNL1     -0.2917
     26 O         -3.146906   -5.246344   6.334853 O.3        1 UNL1     -0.5058
     27 O         -2.398337   -0.815342   0.364868 O.3        1 UNL1     -0.3648
     28 O         0.313536   1.197059   1.63694 O.3        1 UNL1     -0.3841
     29 O         0.930795   -2.209358   0.70626 O.3        1 UNL1     -0.3863
     30 O         0.565249   -0.689175   4.031245 O.3        1 UNL1     -0.3829
     31 H         -2.067039   0.808448   1.474614 H        1 UNL1     0.0937
     32 H         0.0   0.0   0.0 H        1 UNL1     0.0671
     33 H         1.749226   -0.735506   1.820562 H        1 UNL1     0.0649
     34 H         0.801011   -2.587537   3.287894 H        1 UNL1     0.0683
     35 H         -1.472885   -2.145255   4.092899 H        1 UNL1     0.1085
     36 H         -2.13363   -3.333281   4.985494 H        1 UNL1     0.0691
     37 H         -2.404827   -5.30165   1.153762 H        1 UNL1     0.0691
     38 H         -5.635374   -8.105921   3.493047 H        1 UNL1     0.0385
     39 H         -4.904064   -9.45972   4.376763 H        1 UNL1     0.0385
     40 H         -4.191144   -9.335233   1.958997 H        1 UNL1     0.0789
     41 H         -2.420877   -10.697781   1.315229 H        1 UNL1     0.0623
     42 H         -0.446153   -12.017988   1.963073 H        1 UNL1     0.0654
     43 H         -0.13297   -9.779115   5.615298 H        1 UNL1     0.0654
     44 H         -2.057395   -8.434787   4.98655 H        1 UNL1     0.0623
     45 H         1.298439   -12.09501   3.343877 H        1 UNL1     0.2921
     46 H         -4.067194   -5.0184   6.541064 H        1 UNL1     0.2922
     47 H         -3.00007   -0.17365   -0.037635 H        1 UNL1     0.2126
     48 H         -0.356293   1.868646   1.404491 H        1 UNL1     0.2101
     49 H         1.767768   -2.669675   0.877663 H        1 UNL1     0.2100
     50 H         0.099104   0.139718   3.795962 H        1 UNL1     0.2102
@<TRIPOS>BOND
     1     1     2    1
     2     1     6    1
     3     2     3    1
     4     3     4    1
     5     3    29    1
     6     3    33    1
     7     4     5    1
     8     5     6    1
     9     5     7    1
    10     5    35    1
    11     7     8    1
    12     8     9   ar
    13     8    13   ar
    14     9    10   ar
    15     9    36    1
    16    10    11   ar
    17    10    26    1
    18    11    12   ar
    19    11    14    1
    20    12    13   ar
    21    12    17    1
    22    13    37    1
    23    14    15    1
    24    14    25    2
    25    15    16    1
    26    15    38    1
    27    15    39    1
    28    16    17    1
    29    16    18    1
    30    16    40    1
    31    18    19   ar
    32    18    23   ar
    33    19    20   ar
    34    19    41    1
    35    20    21   ar
    36    20    42    1
    37    21    22   ar
    38    21    24    1
    39    22    23   ar
    40    22    43    1
    41    23    44    1
    42    24    45    1
    43    26    46    1
    44    27    47    1
    45    28    48    1
    46    29    49    1
    47    30    50    1
    48     1    31    1
    49     1    27    1
    50     2    32    1
    51     2    28    1
    52     4    34    1
    53     4    30    1
