@<TRIPOS>MOLECULE
*****
 50 53 0 0 0
SMALL
GASTEIGER

@<TRIPOS>ATOM
     1 C         -0.900761   1.267617   -1.533813 C.3        1 UNL1     0.1889
     2 C         0.310883   0.799849   -0.683488 C.3        1 UNL1     0.1342
     3 C         0.994372   1.912844   0.125554 C.3        1 UNL1     0.1174
     4 C         0.989813   3.261378   -0.598706 C.3        1 UNL1     0.1456
     5 C         -0.388002   3.608153   -1.191782 C.3        1 UNL1     0.2326
     6 O         -0.808839   2.575187   -2.079895 O.3        1 UNL1     -0.3076
     7 O         -1.374639   3.935348   -0.196387 O.3        1 UNL1     -0.4605
     8 C         -2.083419   2.86941   0.327954 C.ar        1 UNL1     0.1310
     9 C         -2.143069   2.523667   1.682282 C.ar        1 UNL1     0.0226
     10 C         -2.904776   1.432814   2.11788 C.ar        1 UNL1     0.1343
     11 C         -3.645098   0.674901   1.211606 C.ar        1 UNL1     0.1007
     12 C         -3.56085   0.985336   -0.148289 C.ar        1 UNL1     0.1389
     13 C         -2.792785   2.080612   -0.58633 C.ar        1 UNL1     0.0229
     14 C         -4.532761   -0.43588   1.626785 C.2        1 UNL1     0.1740
     15 C         -5.420644   -0.993412   0.5533 C.3        1 UNL1     0.0520
     16 C         -4.622289   -1.069742   -0.740825 C.3        1 UNL1     0.1322
     17 O         -4.161243   0.240821   -1.136971 O.3        1 UNL1     -0.4828
     18 C         -3.536417   -2.148413   -0.732218 C.ar        1 UNL1     -0.0067
     19 C         -3.910623   -3.507569   -0.702585 C.ar        1 UNL1     -0.0516
     20 C         -2.943157   -4.517913   -0.646231 C.ar        1 UNL1     -0.0198
     21 C         -1.601429   -4.182649   -0.611679 C.ar        1 UNL1     0.1169
     22 C         -1.200816   -2.85429   -0.673405 C.ar        1 UNL1     -0.0198
     23 C         -2.167574   -1.844433   -0.74839 C.ar        1 UNL1     -0.0516
     24 O         -0.689048   -5.192254   -0.518622 O.3        1 UNL1     -0.5068
     25 O         -4.615129   -0.839153   2.783968 O.2        1 UNL1     -0.2917
     26 O         -2.919873   1.147862   3.452106 O.3        1 UNL1     -0.5058
     27 O         -2.152322   1.050746   -0.901873 O.3        1 UNL1     -0.3648
     28 O         1.301163   0.243334   -1.56799 O.3        1 UNL1     -0.3841
     29 O         0.447457   1.990615   1.443495 O.3        1 UNL1     -0.3863
     30 O         1.960226   3.228231   -1.667766 O.3        1 UNL1     -0.3829
     31 H         -0.929919   0.622141   -2.418453 H        1 UNL1     0.0937
     32 H         0.0   0.0   0.0 H        1 UNL1     0.0671
     33 H         2.04724   1.629397   0.262837 H        1 UNL1     0.0649
     34 H         1.297887   4.056443   0.089308 H        1 UNL1     0.0683
     35 H         -0.195768   4.497399   -1.805106 H        1 UNL1     0.1085
     36 H         -1.635181   3.106872   2.442573 H        1 UNL1     0.0691
     37 H         -2.742771   2.300727   -1.650539 H        1 UNL1     0.0691
     38 H         -6.27782   -0.319629   0.449409 H        1 UNL1     0.0385
     39 H         -5.792741   -1.974147   0.868707 H        1 UNL1     0.0385
     40 H         -5.320633   -1.366749   -1.534942 H        1 UNL1     0.0789
     41 H         -4.957484   -3.796438   -0.71952 H        1 UNL1     0.0623
     42 H         -3.244675   -5.561903   -0.611812 H        1 UNL1     0.0654
     43 H         -0.152387   -2.581196   -0.662139 H        1 UNL1     0.0654
     44 H         -1.818565   -0.817917   -0.805861 H        1 UNL1     0.0623
     45 H         -0.754351   -5.739296   -1.31812 H        1 UNL1     0.2921
     46 H         -3.83726   1.043237   3.750213 H        1 UNL1     0.2922
     47 H         -2.383793   1.809536   -0.348231 H        1 UNL1     0.2126
     48 H         2.166014   0.585608   -1.27031 H        1 UNL1     0.2101
     49 H         -0.515187   1.872685   1.408808 H        1 UNL1     0.2100
     50 H         2.369371   2.338151   -1.676081 H        1 UNL1     0.2102
@<TRIPOS>BOND
     1     1     2    1
     2     1     6    1
     3     2     3    1
     4     3     4    1
     5     3    29    1
     6     3    33    1
     7     4     5    1
     8     5     6    1
     9     5     7    1
    10     5    35    1
    11     7     8    1
    12     8     9   ar
    13     8    13   ar
    14     9    10   ar
    15     9    36    1
    16    10    11   ar
    17    10    26    1
    18    11    12   ar
    19    11    14    1
    20    12    13   ar
    21    12    17    1
    22    13    37    1
    23    14    15    1
    24    14    25    2
    25    15    16    1
    26    15    38    1
    27    15    39    1
    28    16    17    1
    29    16    18    1
    30    16    40    1
    31    18    19   ar
    32    18    23   ar
    33    19    20   ar
    34    19    41    1
    35    20    21   ar
    36    20    42    1
    37    21    22   ar
    38    21    24    1
    39    22    23   ar
    40    22    43    1
    41    23    44    1
    42    24    45    1
    43    26    46    1
    44    27    47    1
    45    28    48    1
    46    29    49    1
    47    30    50    1
    48     1    31    1
    49     1    27    1
    50     2    32    1
    51     2    28    1
    52     4    34    1
    53     4    30    1
