@<TRIPOS>MOLECULE
*****
 50 53 0 0 0
SMALL
GASTEIGER

@<TRIPOS>ATOM
     1 C         -2.053846   -0.703261   0.240716 C.3        1 UNL1     0.1889
     2 C         -0.709682   -0.182122   0.816544 C.3        1 UNL1     0.1342
     3 C         -0.054266   -1.107673   1.853005 C.3        1 UNL1     0.1174
     4 C         -1.0768   -1.838496   2.726756 C.3        1 UNL1     0.1456
     5 C         -2.223965   -2.453106   1.904181 C.3        1 UNL1     0.2326
     6 O         -2.871197   -1.438825   1.139203 O.3        1 UNL1     -0.3076
     7 O         -1.819803   -3.586317   1.114368 O.3        1 UNL1     -0.4605
     8 C         -0.726966   -4.29312   1.583054 C.ar        1 UNL1     0.1310
     9 C         0.563886   -3.777675   1.742174 C.ar        1 UNL1     0.0226
     10 C         1.603439   -4.571002   2.242037 C.ar        1 UNL1     0.1343
     11 C         1.371588   -5.893495   2.617665 C.ar        1 UNL1     0.1007
     12 C         0.096367   -6.431504   2.424942 C.ar        1 UNL1     0.1389
     13 C         -0.948096   -5.634387   1.919837 C.ar        1 UNL1     0.0229
     14 C         2.412807   -6.751248   3.229446 C.2        1 UNL1     0.1740
     15 C         1.934071   -8.064569   3.774926 C.3        1 UNL1     0.0520
     16 C         0.910114   -8.643296   2.808207 C.3        1 UNL1     0.1322
     17 O         -0.215888   -7.750608   2.658885 O.3        1 UNL1     -0.4828
     18 C         1.514341   -9.128538   1.488292 C.ar        1 UNL1     -0.0067
     19 C         0.712085   -9.856222   0.585477 C.ar        1 UNL1     -0.0516
     20 C         1.246005   -10.355286   -0.608603 C.ar        1 UNL1     -0.0198
     21 C         2.579563   -10.14021   -0.907255 C.ar        1 UNL1     0.1169
     22 C         3.38647   -9.398713   -0.054072 C.ar        1 UNL1     -0.0198
     23 C         2.848143   -8.883761   1.131291 C.ar        1 UNL1     -0.0516
     24 O         3.073758   -10.673765   -2.061158 O.3        1 UNL1     -0.5068
     25 O         3.582113   -6.401467   3.366788 O.2        1 UNL1     -0.2917
     26 O         2.839587   -4.008275   2.371892 O.3        1 UNL1     -0.5058
     27 O         -1.915452   -1.367743   -1.005116 O.3        1 UNL1     -0.3648
     28 O         -0.949648   1.082088   1.462217 O.3        1 UNL1     -0.3841
     29 O         0.872673   -1.995876   1.225302 O.3        1 UNL1     -0.3863
     30 O         -1.635696   -0.908841   3.680205 O.3        1 UNL1     -0.3829
     31 H         -2.65859   0.180376   0.00931 H        1 UNL1     0.0937
     32 H         0.0   0.0   0.0 H        1 UNL1     0.0671
     33 H         0.549947   -0.483114   2.525741 H        1 UNL1     0.0649
     34 H         -0.580788   -2.628147   3.30193 H        1 UNL1     0.0683
     35 H         -2.942845   -2.788476   2.662218 H        1 UNL1     0.1085
     36 H         0.7954   -2.741515   1.521053 H        1 UNL1     0.0691
     37 H         -1.931561   -6.077348   1.778152 H        1 UNL1     0.0691
     38 H         1.486549   -7.87238   4.755903 H        1 UNL1     0.0385
     39 H         2.793094   -8.729533   3.915207 H        1 UNL1     0.0385
     40 H         0.488505   -9.540171   3.281896 H        1 UNL1     0.0789
     41 H         -0.335278   -10.046353   0.801191 H        1 UNL1     0.0623
     42 H         0.620151   -10.925109   -1.290967 H        1 UNL1     0.0654
     43 H         4.428269   -9.211496   -0.285407 H        1 UNL1     0.0654
     44 H         3.504633   -8.300053   1.769374 H        1 UNL1     0.0623
     45 H         2.485019   -11.39234   -2.343563 H        1 UNL1     0.2921
     46 H         3.218169   -4.253722   3.23087 H        1 UNL1     0.2922
     47 H         -2.314754   -0.841164   -1.711609 H        1 UNL1     0.2126
     48 H         -0.439894   1.071952   2.295153 H        1 UNL1     0.2101
     49 H         0.392414   -2.698863   0.759519 H        1 UNL1     0.2100
     50 H         -2.524905   -0.648615   3.361926 H        1 UNL1     0.2102
@<TRIPOS>BOND
     1     1     2    1
     2     1     6    1
     3     2     3    1
     4     3     4    1
     5     3    29    1
     6     3    33    1
     7     4     5    1
     8     5     6    1
     9     5     7    1
    10     5    35    1
    11     7     8    1
    12     8     9   ar
    13     8    13   ar
    14     9    10   ar
    15     9    36    1
    16    10    11   ar
    17    10    26    1
    18    11    12   ar
    19    11    14    1
    20    12    13   ar
    21    12    17    1
    22    13    37    1
    23    14    15    1
    24    14    25    2
    25    15    16    1
    26    15    38    1
    27    15    39    1
    28    16    17    1
    29    16    18    1
    30    16    40    1
    31    18    19   ar
    32    18    23   ar
    33    19    20   ar
    34    19    41    1
    35    20    21   ar
    36    20    42    1
    37    21    22   ar
    38    21    24    1
    39    22    23   ar
    40    22    43    1
    41    23    44    1
    42    24    45    1
    43    26    46    1
    44    27    47    1
    45    28    48    1
    46    29    49    1
    47    30    50    1
    48     1    31    1
    49     1    27    1
    50     2    32    1
    51     2    28    1
    52     4    34    1
    53     4    30    1
