@<TRIPOS>MOLECULE
*****
 50 53 0 0 0
SMALL
GASTEIGER

@<TRIPOS>ATOM
     1 C         -0.705523   -1.104896   1.747068 C.3        1 UNL1     0.1889
     2 C         -0.564756   -0.91619   0.212625 C.3        1 UNL1     0.1342
     3 C         -1.896098   -0.873235   -0.552977 C.3        1 UNL1     0.1174
     4 C         -2.958815   -1.793721   0.052379 C.3        1 UNL1     0.1456
     5 C         -3.056541   -1.655993   1.582688 C.3        1 UNL1     0.2326
     6 O         -1.787138   -1.918635   2.176408 O.3        1 UNL1     -0.3076
     7 O         -3.634098   -0.409029   2.010273 O.3        1 UNL1     -0.4605
     8 C         -4.365274   -0.450424   3.183813 C.ar        1 UNL1     0.1310
     9 C         -5.312388   -1.425576   3.514501 C.ar        1 UNL1     0.0226
     10 C         -5.990398   -1.390209   4.738819 C.ar        1 UNL1     0.1343
     11 C         -5.720149   -0.391211   5.673062 C.ar        1 UNL1     0.1007
     12 C         -4.806338   0.61129   5.337315 C.ar        1 UNL1     0.1389
     13 C         -4.12667   0.576991   4.105119 C.ar        1 UNL1     0.0229
     14 C         -6.345546   -0.353368   7.015299 C.2        1 UNL1     0.1740
     15 C         -5.776271   0.655919   7.968616 C.3        1 UNL1     0.0520
     16 C         -5.492804   1.938859   7.199416 C.3        1 UNL1     0.1322
     17 O         -4.544527   1.700266   6.135972 O.3        1 UNL1     -0.4828
     18 C         -6.754587   2.68993   6.767536 C.ar        1 UNL1     -0.0067
     19 C         -6.636028   3.979011   6.208581 C.ar        1 UNL1     -0.0516
     20 C         -7.772366   4.712385   5.846837 C.ar        1 UNL1     -0.0198
     21 C         -9.03029   4.171975   6.045359 C.ar        1 UNL1     0.1169
     22 C         -9.178241   2.891598   6.562646 C.ar        1 UNL1     -0.0198
     23 C         -8.041462   2.150672   6.907344 C.ar        1 UNL1     -0.0516
     24 O         -10.114857   4.930738   5.716124 O.3        1 UNL1     -0.5068
     25 O         -7.218281   -1.13825   7.376931 O.2        1 UNL1     -0.2917
     26 O         -6.902898   -2.370424   4.999788 O.3        1 UNL1     -0.5058
     27 O         -0.644629   0.111776   2.474246 O.3        1 UNL1     -0.3648
     28 O         0.197146   -2.018187   -0.314456 O.3        1 UNL1     -0.3841
     29 O         -2.350996   0.473024   -0.703924 O.3        1 UNL1     -0.3863
     30 O         -2.638076   -3.164283   -0.270694 O.3        1 UNL1     -0.3829
     31 H         0.179334   -1.660453   2.076405 H        1 UNL1     0.0937
     32 H         0.0   0.0   -0.0 H        1 UNL1     0.0671
     33 H         -1.707636   -1.233726   -1.573883 H        1 UNL1     0.0649
     34 H         -3.936621   -1.57976   -0.393172 H        1 UNL1     0.0683
     35 H         -3.723299   -2.475106   1.879954 H        1 UNL1     0.1085
     36 H         -5.526583   -2.259311   2.85486 H        1 UNL1     0.0691
     37 H         -3.420864   1.369917   3.86721 H        1 UNL1     0.0691
     38 H         -4.855829   0.234403   8.386513 H        1 UNL1     0.0385
     39 H         -6.484013   0.813213   8.789676 H        1 UNL1     0.0385
     40 H         -4.970338   2.619012   7.885669 H        1 UNL1     0.0789
     41 H         -5.660163   4.429064   6.051132 H        1 UNL1     0.0623
     42 H         -7.668245   5.710165   5.427783 H        1 UNL1     0.0654
     43 H         -10.158135   2.452839   6.708276 H        1 UNL1     0.0654
     44 H         -8.193839   1.149544   7.298968 H        1 UNL1     0.0623
     45 H         -10.137951   5.703764   6.303164 H        1 UNL1     0.2921
     46 H         -6.789241   -2.683965   5.910934 H        1 UNL1     0.2922
     47 H         0.165544   0.592765   2.254861 H        1 UNL1     0.2126
     48 H         1.121622   -1.879586   -0.03185 H        1 UNL1     0.2101
     49 H         -1.892399   0.894866   -1.447921 H        1 UNL1     0.2100
     50 H         -2.744167   -3.27884   -1.237821 H        1 UNL1     0.2102
@<TRIPOS>BOND
     1     1     2    1
     2     1     6    1
     3     2     3    1
     4     3     4    1
     5     3    29    1
     6     3    33    1
     7     4     5    1
     8     5     6    1
     9     5     7    1
    10     5    35    1
    11     7     8    1
    12     8     9   ar
    13     8    13   ar
    14     9    10   ar
    15     9    36    1
    16    10    11   ar
    17    10    26    1
    18    11    12   ar
    19    11    14    1
    20    12    13   ar
    21    12    17    1
    22    13    37    1
    23    14    15    1
    24    14    25    2
    25    15    16    1
    26    15    38    1
    27    15    39    1
    28    16    17    1
    29    16    18    1
    30    16    40    1
    31    18    19   ar
    32    18    23   ar
    33    19    20   ar
    34    19    41    1
    35    20    21   ar
    36    20    42    1
    37    21    22   ar
    38    21    24    1
    39    22    23   ar
    40    22    43    1
    41    23    44    1
    42    24    45    1
    43    26    46    1
    44    27    47    1
    45    28    48    1
    46    29    49    1
    47    30    50    1
    48     1    31    1
    49     1    27    1
    50     2    32    1
    51     2    28    1
    52     4    34    1
    53     4    30    1
