@<TRIPOS>MOLECULE
*****
 50 53 0 0 0
SMALL
GASTEIGER

@<TRIPOS>ATOM
     1 C         -0.333823   -1.331523   1.698945 C.3        1 UNL1     0.1889
     2 C         -0.459416   -0.977429   0.192696 C.3        1 UNL1     0.1342
     3 C         -1.898057   -0.969968   -0.346488 C.3        1 UNL1     0.1174
     4 C         -2.782914   -2.033449   0.308611 C.3        1 UNL1     0.1456
     5 C         -2.637575   -2.059899   1.841106 C.3        1 UNL1     0.2326
     6 O         -1.273298   -2.272989   2.196362 O.3        1 UNL1     -0.3076
     7 O         -3.219727   -0.915853   2.491935 O.3        1 UNL1     -0.4605
     8 C         -3.733671   -1.134685   3.757439 C.ar        1 UNL1     0.1310
     9 C         -4.547159   -2.211352   4.126662 C.ar        1 UNL1     0.0226
     10 C         -5.004852   -2.354939   5.441882 C.ar        1 UNL1     0.1343
     11 C         -4.640217   -1.437306   6.426174 C.ar        1 UNL1     0.1007
     12 C         -3.86204   -0.335686   6.060582 C.ar        1 UNL1     0.1389
     13 C         -3.404141   -0.190108   4.737492 C.ar        1 UNL1     0.0229
     14 C         -5.026018   -1.586158   7.848551 C.2        1 UNL1     0.1740
     15 C         -4.36477   -0.6362   8.803475 C.3        1 UNL1     0.0520
     16 C         -4.298405   0.736731   8.148789 C.3        1 UNL1     0.1322
     17 O         -3.534662   0.684234   6.923631 O.3        1 UNL1     -0.4828
     18 C         -5.659938   1.423757   8.01861 C.ar        1 UNL1     -0.0067
     19 C         -6.036336   1.986317   6.781652 C.ar        1 UNL1     -0.0516
     20 C         -7.253806   2.663048   6.641066 C.ar        1 UNL1     -0.0198
     21 C         -8.098417   2.790124   7.729327 C.ar        1 UNL1     0.1169
     22 C         -7.770707   2.217994   8.951666 C.ar        1 UNL1     -0.0198
     23 C         -6.561697   1.525283   9.087684 C.ar        1 UNL1     -0.0516
     24 O         -9.258305   3.488587   7.564372 O.3        1 UNL1     -0.5068
     25 O         -5.772874   -2.471309   8.257448 O.2        1 UNL1     -0.2917
     26 O         -5.796016   -3.426775   5.73652 O.3        1 UNL1     -0.5058
     27 O         -0.236488   -0.193834   2.540952 O.3        1 UNL1     -0.3648
     28 O         0.278121   -1.952132   -0.568027 O.3        1 UNL1     -0.3841
     29 O         -2.460968   0.341366   -0.271201 O.3        1 UNL1     -0.3863
     30 O         -2.428087   -3.332287   -0.213698 O.3        1 UNL1     -0.3829
     31 H         0.628347   -1.840746   1.821417 H        1 UNL1     0.0937
     32 H         0.0   0.0   0.0 H        1 UNL1     0.0671
     33 H         -1.855647   -1.208171   -1.418486 H        1 UNL1     0.0649
     34 H         -3.832653   -1.858949   0.047846 H        1 UNL1     0.0683
     35 H         -3.190034   -2.958276   2.14374 H        1 UNL1     0.1085
     36 H         -4.819624   -2.988439   3.420958 H        1 UNL1     0.0691
     37 H         -2.800561   0.677048   4.478212 H        1 UNL1     0.0691
     38 H         -3.361687   -1.022486   9.013556 H        1 UNL1     0.0385
     39 H         -4.928778   -0.620397   9.742317 H        1 UNL1     0.0385
     40 H         -3.708757   1.383629   8.812384 H        1 UNL1     0.0789
     41 H         -5.386752   1.908103   5.914718 H        1 UNL1     0.0623
     42 H         -7.527357   3.102792   5.685134 H        1 UNL1     0.0654
     43 H         -8.431654   2.298553   9.806399 H        1 UNL1     0.0654
     44 H         -6.342607   1.081827   10.054219 H        1 UNL1     0.0623
     45 H         -9.034918   4.397314   7.305466 H        1 UNL1     0.2921
     46 H         -5.392777   -3.938622   6.455425 H        1 UNL1     0.2922
     47 H         0.505561   0.36304   2.266882 H        1 UNL1     0.2126
     48 H         1.209477   -1.883444   -0.282388 H        1 UNL1     0.2101
     49 H         -2.021739   0.926166   -0.909073 H        1 UNL1     0.2100
     50 H         -2.657324   -3.347192   -1.166033 H        1 UNL1     0.2102
@<TRIPOS>BOND
     1     1     2    1
     2     1     6    1
     3     2     3    1
     4     3     4    1
     5     3    29    1
     6     3    33    1
     7     4     5    1
     8     5     6    1
     9     5     7    1
    10     5    35    1
    11     7     8    1
    12     8     9   ar
    13     8    13   ar
    14     9    10   ar
    15     9    36    1
    16    10    11   ar
    17    10    26    1
    18    11    12   ar
    19    11    14    1
    20    12    13   ar
    21    12    17    1
    22    13    37    1
    23    14    15    1
    24    14    25    2
    25    15    16    1
    26    15    38    1
    27    15    39    1
    28    16    17    1
    29    16    18    1
    30    16    40    1
    31    18    19   ar
    32    18    23   ar
    33    19    20   ar
    34    19    41    1
    35    20    21   ar
    36    20    42    1
    37    21    22   ar
    38    21    24    1
    39    22    23   ar
    40    22    43    1
    41    23    44    1
    42    24    45    1
    43    26    46    1
    44    27    47    1
    45    28    48    1
    46    29    49    1
    47    30    50    1
    48     1    31    1
    49     1    27    1
    50     2    32    1
    51     2    28    1
    52     4    34    1
    53     4    30    1
