@<TRIPOS>MOLECULE
*****
 50 53 0 0 0
SMALL
GASTEIGER

@<TRIPOS>ATOM
     1 C         0.653988   -1.981907   0.644321 C.3        1 UNL1     0.1889
     2 C         -0.254755   -1.048228   -0.1997 C.3        1 UNL1     0.1342
     3 C         -1.761818   -1.248613   0.021822 C.3        1 UNL1     0.1174
     4 C         -2.133292   -2.709237   0.289591 C.3        1 UNL1     0.1456
     5 C         -1.20582   -3.374209   1.323017 C.3        1 UNL1     0.2326
     6 O         0.149024   -3.2866   0.887595 O.3        1 UNL1     -0.3076
     7 O         -1.401587   -2.890146   2.664166 O.3        1 UNL1     -0.4605
     8 C         -1.175878   -3.804248   3.677577 C.ar        1 UNL1     0.1310
     9 C         -1.643967   -5.122481   3.698893 C.ar        1 UNL1     0.0226
     10 C         -1.346825   -5.978838   4.765786 C.ar        1 UNL1     0.1343
     11 C         -0.553651   -5.544521   5.826957 C.ar        1 UNL1     0.1007
     12 C         -0.114629   -4.217891   5.836741 C.ar        1 UNL1     0.1389
     13 C         -0.415748   -3.356239   4.765147 C.ar        1 UNL1     0.0229
     14 C         -0.139281   -6.431733   6.9384 C.2        1 UNL1     0.1740
     15 C         0.890853   -5.865963   7.871287 C.3        1 UNL1     0.0520
     16 C         0.56317   -4.399935   8.118966 C.3        1 UNL1     0.1322
     17 O         0.580449   -3.654493   6.881594 O.3        1 UNL1     -0.4828
     18 C         -0.689112   -4.184086   8.972149 C.ar        1 UNL1     -0.0067
     19 C         -1.662899   -3.255622   8.550355 C.ar        1 UNL1     -0.0516
     20 C         -2.796773   -2.999518   9.330549 C.ar        1 UNL1     -0.0198
     21 C         -2.964409   -3.65846   10.53534 C.ar        1 UNL1     0.1169
     22 C         -2.039622   -4.602923   10.961483 C.ar        1 UNL1     -0.0198
     23 C         -0.914924   -4.872756   10.172622 C.ar        1 UNL1     -0.0516
     24 O         -4.062035   -3.355384   11.286181 O.3        1 UNL1     -0.5068
     25 O         -0.536032   -7.587167   7.065071 O.2        1 UNL1     -0.2917
     26 O         -1.834758   -7.252396   4.726317 O.3        1 UNL1     -0.5058
     27 O         1.136869   -1.377065   1.833345 O.3        1 UNL1     -0.3648
     28 O         0.009567   -1.292685   -1.593644 O.3        1 UNL1     -0.3841
     29 O         -2.248758   -0.360035   1.029518 O.3        1 UNL1     -0.3863
     30 O         -2.058072   -3.451525   -0.946952 O.3        1 UNL1     -0.3829
     31 H         1.555363   -2.163145   0.048709 H        1 UNL1     0.0937
     32 H         0.0   0.0   0.0 H        1 UNL1     0.0671
     33 H         -2.278719   -0.953454   -0.901983 H        1 UNL1     0.0649
     34 H         -3.16956   -2.773475   0.639484 H        1 UNL1     0.0683
     35 H         -1.485017   -4.434636   1.285325 H        1 UNL1     0.1085
     36 H         -2.218231   -5.537012   2.87761 H        1 UNL1     0.0691
     37 H         -0.06302   -2.327626   4.797272 H        1 UNL1     0.0691
     38 H         1.868907   -5.97636   7.390923 H        1 UNL1     0.0385
     39 H         0.896543   -6.451116   8.797215 H        1 UNL1     0.0385
     40 H         1.39057   -3.977891   8.705318 H        1 UNL1     0.0789
     41 H         -1.5499   -2.718669   7.613038 H        1 UNL1     0.0623
     42 H         -3.534599   -2.272557   9.000169 H        1 UNL1     0.0654
     43 H         -2.168698   -5.135715   11.896032 H        1 UNL1     0.0654
     44 H         -0.218229   -5.624357   10.531169 H        1 UNL1     0.0623
     45 H         -4.012181   -2.419064   11.538247 H        1 UNL1     0.2921
     46 H         -1.100639   -7.882529   4.799896 H        1 UNL1     0.2922
     47 H         1.596194   -0.551245   1.626217 H        1 UNL1     0.2126
     48 H         0.937233   -1.031943   -1.752333 H        1 UNL1     0.2101
     49 H         -2.2382   0.552096   0.698308 H        1 UNL1     0.2100
     50 H         -2.75521   -3.111714   -1.545484 H        1 UNL1     0.2102
@<TRIPOS>BOND
     1     1     2    1
     2     1     6    1
     3     2     3    1
     4     3     4    1
     5     3    29    1
     6     3    33    1
     7     4     5    1
     8     5     6    1
     9     5     7    1
    10     5    35    1
    11     7     8    1
    12     8     9   ar
    13     8    13   ar
    14     9    10   ar
    15     9    36    1
    16    10    11   ar
    17    10    26    1
    18    11    12   ar
    19    11    14    1
    20    12    13   ar
    21    12    17    1
    22    13    37    1
    23    14    15    1
    24    14    25    2
    25    15    16    1
    26    15    38    1
    27    15    39    1
    28    16    17    1
    29    16    18    1
    30    16    40    1
    31    18    19   ar
    32    18    23   ar
    33    19    20   ar
    34    19    41    1
    35    20    21   ar
    36    20    42    1
    37    21    22   ar
    38    21    24    1
    39    22    23   ar
    40    22    43    1
    41    23    44    1
    42    24    45    1
    43    26    46    1
    44    27    47    1
    45    28    48    1
    46    29    49    1
    47    30    50    1
    48     1    31    1
    49     1    27    1
    50     2    32    1
    51     2    28    1
    52     4    34    1
    53     4    30    1
