@<TRIPOS>MOLECULE
*****
 50 53 0 0 0
SMALL
GASTEIGER

@<TRIPOS>ATOM
     1 C         -0.509256   -1.192373   1.757757 C.3        1 UNL1     0.1889
     2 C         -0.506425   -0.946845   0.224901 C.3        1 UNL1     0.1342
     3 C         -1.898268   -0.937526   -0.425599 C.3        1 UNL1     0.1174
     4 C         -2.867125   -1.923733   0.231539 C.3        1 UNL1     0.1456
     5 C         -2.840953   -1.841284   1.768705 C.3        1 UNL1     0.2326
     6 O         -1.516198   -2.066998   2.245092 O.3        1 UNL1     -0.3076
     7 O         -3.431427   -0.635981   2.288232 O.3        1 UNL1     -0.4605
     8 C         -4.048753   -0.746023   3.521248 C.ar        1 UNL1     0.1310
     9 C         -4.925251   -1.768464   3.900281 C.ar        1 UNL1     0.0226
     10 C         -5.487747   -1.801473   5.181847 C.ar        1 UNL1     0.1343
     11 C         -5.168425   -0.824879   6.124259 C.ar        1 UNL1     0.1007
     12 C         -4.326523   0.223731   5.744256 C.ar        1 UNL1     0.1389
     13 C         -3.763146   0.25814   4.454739 C.ar        1 UNL1     0.0229
     14 C         -5.667734   -0.857342   7.518458 C.2        1 UNL1     0.1740
     15 C         -5.049474   0.140682   8.452937 C.3        1 UNL1     0.0520
     16 C         -4.885096   1.459185   7.709643 C.3        1 UNL1     0.1322
     17 O         -4.031416   1.29445   6.555883 O.3        1 UNL1     -0.4828
     18 C         -6.207809   2.174094   7.423183 C.ar        1 UNL1     -0.0067
     19 C         -6.466689   2.657267   6.124053 C.ar        1 UNL1     -0.0516
     20 C         -7.645407   3.357012   5.839547 C.ar        1 UNL1     -0.0198
     21 C         -8.567691   3.585973   6.84493 C.ar        1 UNL1     0.1169
     22 C         -8.356507   3.093616   8.126268 C.ar        1 UNL1     -0.0198
     23 C         -7.18641   2.377855   8.406654 C.ar        1 UNL1     -0.0516
     24 O         -9.686383   4.303981   6.539326 O.3        1 UNL1     -0.5068
     25 O         -6.474239   -1.687886   7.928617 O.2        1 UNL1     -0.2917
     26 O         -6.336079   -2.825237   5.488151 O.3        1 UNL1     -0.5058
     27 O         -0.437567   0.001022   2.5216 O.3        1 UNL1     -0.3648
     28 O         0.253186   -1.99594   -0.403667 O.3        1 UNL1     -0.3841
     29 O         -2.419562   0.391533   -0.488741 O.3        1 UNL1     -0.3863
     30 O         -2.5184   -3.267282   -0.167158 O.3        1 UNL1     -0.3829
     31 H         0.422454   -1.718816   1.991966 H        1 UNL1     0.0937
     32 H         0.0   0.0   0.0 H        1 UNL1     0.0671
     33 H         -1.781899   -1.25527   -1.471169 H        1 UNL1     0.0649
     34 H         -3.887056   -1.738626   -0.123253 H        1 UNL1     0.0683
     35 H         -3.445799   -2.698524   2.089921 H        1 UNL1     0.1085
     36 H         -5.169334   -2.587128   3.232199 H        1 UNL1     0.0691
     37 H         -3.111571   1.085926   4.18324 H        1 UNL1     0.0691
     38 H         -4.079629   -0.258118   8.768982 H        1 UNL1     0.0385
     39 H         -5.683327   0.241952   9.340492 H        1 UNL1     0.0385
     40 H         -4.326248   2.13574   8.370312 H        1 UNL1     0.0789
     41 H         -5.754351   2.49849   5.31968 H        1 UNL1     0.0623
     42 H         -7.828031   3.73489   4.836617 H        1 UNL1     0.0654
     43 H         -9.079131   3.254184   8.917433 H        1 UNL1     0.0654
     44 H         -7.059005   1.998605   9.416002 H        1 UNL1     0.0623
     45 H         -9.412648   5.187837   6.245071 H        1 UNL1     0.2921
     46 H         -6.008468   -3.29322   6.272418 H        1 UNL1     0.2922
     47 H         0.340578   0.51586   2.266076 H        1 UNL1     0.2126
     48 H         1.165929   -1.922238   -0.064255 H        1 UNL1     0.2101
     49 H         -1.914516   0.913899   -1.132057 H        1 UNL1     0.2100
     50 H         -2.67954   -3.347436   -1.130133 H        1 UNL1     0.2102
@<TRIPOS>BOND
     1     1     2    1
     2     1     6    1
     3     2     3    1
     4     3     4    1
     5     3    29    1
     6     3    33    1
     7     4     5    1
     8     5     6    1
     9     5     7    1
    10     5    35    1
    11     7     8    1
    12     8     9   ar
    13     8    13   ar
    14     9    10   ar
    15     9    36    1
    16    10    11   ar
    17    10    26    1
    18    11    12   ar
    19    11    14    1
    20    12    13   ar
    21    12    17    1
    22    13    37    1
    23    14    15    1
    24    14    25    2
    25    15    16    1
    26    15    38    1
    27    15    39    1
    28    16    17    1
    29    16    18    1
    30    16    40    1
    31    18    19   ar
    32    18    23   ar
    33    19    20   ar
    34    19    41    1
    35    20    21   ar
    36    20    42    1
    37    21    22   ar
    38    21    24    1
    39    22    23   ar
    40    22    43    1
    41    23    44    1
    42    24    45    1
    43    26    46    1
    44    27    47    1
    45    28    48    1
    46    29    49    1
    47    30    50    1
    48     1    31    1
    49     1    27    1
    50     2    32    1
    51     2    28    1
    52     4    34    1
    53     4    30    1
