@<TRIPOS>MOLECULE
*****
 50 53 0 0 0
SMALL
GASTEIGER

@<TRIPOS>ATOM
     1 C         -1.959871   0.528598   0.806407 C.3        1 UNL1     0.1889
     2 C         -0.437477   0.271824   0.968652 C.3        1 UNL1     0.1342
     3 C         -0.075499   -0.805875   2.002093 C.3        1 UNL1     0.1174
     4 C         -1.028643   -0.823669   3.199723 C.3        1 UNL1     0.1456
     5 C         -2.508052   -0.764462   2.777577 C.3        1 UNL1     0.2326
     6 O         -2.741191   0.39748   1.984857 O.3        1 UNL1     -0.3076
     7 O         -2.976079   -1.975884   2.157314 O.3        1 UNL1     -0.4605
     8 C         -2.731659   -3.146509   2.8526 C.ar        1 UNL1     0.1310
     9 C         -1.608958   -3.965527   2.691194 C.ar        1 UNL1     0.0226
     10 C         -1.443283   -5.125636   3.457093 C.ar        1 UNL1     0.1343
     11 C         -2.385592   -5.482498   4.420703 C.ar        1 UNL1     0.1007
     12 C         -3.531062   -4.694711   4.562387 C.ar        1 UNL1     0.1389
     13 C         -3.698704   -3.52971   3.790311 C.ar        1 UNL1     0.0229
     14 C         -2.219499   -6.651249   5.315459 C.2        1 UNL1     0.1740
     15 C         -3.212036   -6.757504   6.435784 C.3        1 UNL1     0.0520
     16 C         -4.583682   -6.366843   5.902933 C.3        1 UNL1     0.1322
     17 O         -4.572683   -5.011396   5.403222 O.3        1 UNL1     -0.4828
     18 C         -5.185847   -7.393039   4.940102 C.ar        1 UNL1     -0.0067
     19 C         -4.39414   -8.470555   4.492472 C.ar        1 UNL1     -0.0516
     20 C         -4.898562   -9.400084   3.57514 C.ar        1 UNL1     -0.0198
     21 C         -6.187717   -9.259256   3.093399 C.ar        1 UNL1     0.1169
     22 C         -7.003   -8.227782   3.54085 C.ar        1 UNL1     -0.0198
     23 C         -6.505069   -7.308701   4.472199 C.ar        1 UNL1     -0.0516
     24 O         -6.631692   -10.162053   2.172397 O.3        1 UNL1     -0.5068
     25 O         -1.292185   -7.450713   5.218343 O.2        1 UNL1     -0.2917
     26 O         -0.326449   -5.881579   3.250171 O.3        1 UNL1     -0.5058
     27 O         -2.537688   -0.16914   -0.285415 O.3        1 UNL1     -0.3648
     28 O         0.189403   1.497375   1.390259 O.3        1 UNL1     -0.3841
     29 O         0.052317   -2.084787   1.37745 O.3        1 UNL1     -0.3863
     30 O         -0.74284   0.30854   4.049494 O.3        1 UNL1     -0.3829
     31 H         -2.072312   1.585455   0.540908 H        1 UNL1     0.0937
     32 H         0.0   -0.0   0.0 H        1 UNL1     0.0671
     33 H         0.923871   -0.571757   2.394737 H        1 UNL1     0.0649
     34 H         -0.859365   -1.725086   3.79905 H        1 UNL1     0.0683
     35 H         -3.047081   -0.619533   3.722205 H        1 UNL1     0.1085
     36 H         -0.813729   -3.71294   1.998423 H        1 UNL1     0.0691
     37 H         -4.59995   -2.934129   3.918888 H        1 UNL1     0.0691
     38 H         -2.888528   -6.076863   7.230515 H        1 UNL1     0.0385
     39 H         -3.19738   -7.778301   6.832693 H        1 UNL1     0.0385
     40 H         -5.268129   -6.337371   6.761527 H        1 UNL1     0.0789
     41 H         -3.376013   -8.597911   4.84863 H        1 UNL1     0.0623
     42 H         -4.274186   -10.21985   3.228513 H        1 UNL1     0.0654
     43 H         -8.019121   -8.116843   3.181544 H        1 UNL1     0.0654
     44 H         -7.173202   -6.521481   4.80795 H        1 UNL1     0.0623
     45 H         -6.010806   -10.169258   1.425961 H        1 UNL1     0.2921
     46 H         -0.021614   -6.246622   4.095884 H        1 UNL1     0.2922
     47 H         -2.829151   -1.047834   -0.00469 H        1 UNL1     0.2126
     48 H         0.836963   1.257181   2.080697 H        1 UNL1     0.2101
     49 H         0.223287   -1.973075   0.428723 H        1 UNL1     0.2100
     50 H         -1.426605   0.990208   3.883642 H        1 UNL1     0.2102
@<TRIPOS>BOND
     1     1     2    1
     2     1     6    1
     3     2     3    1
     4     3     4    1
     5     3    29    1
     6     3    33    1
     7     4     5    1
     8     5     6    1
     9     5     7    1
    10     5    35    1
    11     7     8    1
    12     8     9   ar
    13     8    13   ar
    14     9    10   ar
    15     9    36    1
    16    10    11   ar
    17    10    26    1
    18    11    12   ar
    19    11    14    1
    20    12    13   ar
    21    12    17    1
    22    13    37    1
    23    14    15    1
    24    14    25    2
    25    15    16    1
    26    15    38    1
    27    15    39    1
    28    16    17    1
    29    16    18    1
    30    16    40    1
    31    18    19   ar
    32    18    23   ar
    33    19    20   ar
    34    19    41    1
    35    20    21   ar
    36    20    42    1
    37    21    22   ar
    38    21    24    1
    39    22    23   ar
    40    22    43    1
    41    23    44    1
    42    24    45    1
    43    26    46    1
    44    27    47    1
    45    28    48    1
    46    29    49    1
    47    30    50    1
    48     1    31    1
    49     1    27    1
    50     2    32    1
    51     2    28    1
    52     4    34    1
    53     4    30    1
