@<TRIPOS>MOLECULE
*****
 50 53 0 0 0
SMALL
GASTEIGER

@<TRIPOS>ATOM
     1 C         -0.233205   -1.276347   1.757088 C.3        1 UNL1     0.1889
     2 C         -0.408297   -0.989194   0.24156 C.3        1 UNL1     0.1342
     3 C         -1.857113   -1.070207   -0.263252 C.3        1 UNL1     0.1174
     4 C         -2.676097   -2.146498   0.453672 C.3        1 UNL1     0.1456
     5 C         -2.496227   -2.104655   1.982155 C.3        1 UNL1     0.2326
     6 O         -1.115955   -2.239717   2.313025 O.3        1 UNL1     -0.3076
     7 O         -3.117544   -0.963691   2.60142 O.3        1 UNL1     -0.4605
     8 C         -3.592782   -1.155204   3.886333 C.ar        1 UNL1     0.1310
     9 C         -4.346114   -2.252813   4.316503 C.ar        1 UNL1     0.0226
     10 C         -4.767656   -2.364614   5.646806 C.ar        1 UNL1     0.1343
     11 C         -4.425469   -1.392278   6.585588 C.ar        1 UNL1     0.1007
     12 C         -3.708501   -0.271259   6.158906 C.ar        1 UNL1     0.1389
     13 C         -3.28702   -0.157776   4.820659 C.ar        1 UNL1     0.0229
     14 C         -4.772625   -1.501696   8.021438 C.2        1 UNL1     0.1740
     15 C         -4.136401   -0.484497   8.922589 C.3        1 UNL1     0.0520
     16 C         -4.149439   0.862658   8.213391 C.3        1 UNL1     0.1322
     17 O         -3.411012   0.796576   6.97346 O.3        1 UNL1     -0.4828
     18 C         -5.544496   1.479922   8.088788 C.ar        1 UNL1     -0.0067
     19 C         -5.974041   1.974303   6.840072 C.ar        1 UNL1     -0.0516
     20 C         -7.22497   2.587565   6.702059 C.ar        1 UNL1     -0.0198
     21 C         -8.050677   2.718837   7.80424 C.ar        1 UNL1     0.1169
     22 C         -7.66962   2.212055   9.03988 C.ar        1 UNL1     -0.0198
     23 C         -6.426482   1.582267   9.174154 C.ar        1 UNL1     -0.0516
     24 O         -9.245664   3.355487   7.639671 O.3        1 UNL1     -0.5068
     25 O         -5.467619   -2.403462   8.482182 O.2        1 UNL1     -0.2917
     26 O         -5.500552   -3.459356   6.001752 O.3        1 UNL1     -0.5058
     27 O         -0.171483   -0.102495   2.551474 O.3        1 UNL1     -0.3648
     28 O         0.357773   -1.958325   -0.497782 O.3        1 UNL1     -0.3841
     29 O         -2.479708   0.215527   -0.225918 O.3        1 UNL1     -0.3863
     30 O         -2.271658   -3.447363   -0.025774 O.3        1 UNL1     -0.3829
     31 H         0.754444   -1.735002   1.876515 H        1 UNL1     0.0937
     32 H         0.0   0.0   0.0 H        1 UNL1     0.0671
     33 H         -1.826898   -1.349006   -1.325833 H        1 UNL1     0.0649
     34 H         -3.738367   -2.031552   0.211246 H        1 UNL1     0.0683
     35 H         -2.998783   -3.014856   2.332655 H        1 UNL1     0.1085
     36 H         -4.596828   -3.069407   3.648344 H        1 UNL1     0.0691
     37 H         -2.730988   0.725377   4.513475 H        1 UNL1     0.0691
     38 H         -3.111802   -0.815031   9.123762 H        1 UNL1     0.0385
     39 H         -4.679881   -0.45725   9.873202 H        1 UNL1     0.0385
     40 H         -3.57673   1.562353   8.837051 H        1 UNL1     0.0789
     41 H         -5.340575   1.891623   5.961701 H        1 UNL1     0.0623
     42 H         -7.539854   2.975416   5.736434 H        1 UNL1     0.0654
     43 H         -8.314812   2.296058   9.906242 H        1 UNL1     0.0654
     44 H         -6.165578   1.188607   10.151808 H        1 UNL1     0.0623
     45 H         -9.071268   4.262487   7.340249 H        1 UNL1     0.2921
     46 H         -5.058099   -3.922466   6.730571 H        1 UNL1     0.2922
     47 H         0.537089   0.476879   2.238245 H        1 UNL1     0.2126
     48 H         1.290935   -1.83457   -0.237732 H        1 UNL1     0.2101
     49 H         -2.082703   0.794032   -0.896376 H        1 UNL1     0.2100
     50 H         -2.520681   -3.511102   -0.971098 H        1 UNL1     0.2102
@<TRIPOS>BOND
     1     1     2    1
     2     1     6    1
     3     2     3    1
     4     3     4    1
     5     3    29    1
     6     3    33    1
     7     4     5    1
     8     5     6    1
     9     5     7    1
    10     5    35    1
    11     7     8    1
    12     8     9   ar
    13     8    13   ar
    14     9    10   ar
    15     9    36    1
    16    10    11   ar
    17    10    26    1
    18    11    12   ar
    19    11    14    1
    20    12    13   ar
    21    12    17    1
    22    13    37    1
    23    14    15    1
    24    14    25    2
    25    15    16    1
    26    15    38    1
    27    15    39    1
    28    16    17    1
    29    16    18    1
    30    16    40    1
    31    18    19   ar
    32    18    23   ar
    33    19    20   ar
    34    19    41    1
    35    20    21   ar
    36    20    42    1
    37    21    22   ar
    38    21    24    1
    39    22    23   ar
    40    22    43    1
    41    23    44    1
    42    24    45    1
    43    26    46    1
    44    27    47    1
    45    28    48    1
    46    29    49    1
    47    30    50    1
    48     1    31    1
    49     1    27    1
    50     2    32    1
    51     2    28    1
    52     4    34    1
    53     4    30    1
