@<TRIPOS>MOLECULE
*****
 50 53 0 0 0
SMALL
GASTEIGER

@<TRIPOS>ATOM
     1 C         0.87316   -0.047677   2.00153 C.3        1 UNL1     0.1889
     2 C         -0.34558   0.001459   1.041218 C.3        1 UNL1     0.1342
     3 C         -1.283508   1.199177   1.256223 C.3        1 UNL1     0.1174
     4 C         -1.398853   1.606077   2.72736 C.3        1 UNL1     0.1456
     5 C         -0.02941   1.688422   3.42608 C.3        1 UNL1     0.2326
     6 O         0.648099   0.438683   3.316519 O.3        1 UNL1     -0.3076
     7 O         0.768949   2.804777   2.992843 O.3        1 UNL1     -0.4605
     8 C         1.610087   3.35386   3.943907 C.ar        1 UNL1     0.1310
     9 C         1.257146   3.64663   5.265655 C.ar        1 UNL1     0.0226
     10 C         2.188122   4.187347   6.160536 C.ar        1 UNL1     0.1343
     11 C         3.502468   4.426465   5.761589 C.ar        1 UNL1     0.1007
     12 C         3.855852   4.176523   4.432893 C.ar        1 UNL1     0.1389
     13 C         2.918868   3.635309   3.532571 C.ar        1 UNL1     0.0229
     14 C         4.548535   4.917862   6.688101 C.2        1 UNL1     0.1740
     15 C         5.949546   4.905451   6.150921 C.3        1 UNL1     0.0520
     16 C         5.912617   5.359897   4.698312 C.3        1 UNL1     0.1322
     17 O         5.090464   4.475605   3.905114 O.3        1 UNL1     -0.4828
     18 C         5.594159   6.84703   4.525845 C.ar        1 UNL1     -0.0067
     19 C         5.237859   7.335793   3.252121 C.ar        1 UNL1     -0.0516
     20 C         4.986593   8.698132   3.049984 C.ar        1 UNL1     -0.0198
     21 C         5.095232   9.580993   4.109503 C.ar        1 UNL1     0.1169
     22 C         5.411538   9.125032   5.382645 C.ar        1 UNL1     -0.0198
     23 C         5.644811   7.760084   5.588936 C.ar        1 UNL1     -0.0516
     24 O         4.88018   10.905812   3.866591 O.3        1 UNL1     -0.5068
     25 O         4.323218   5.243506   7.850716 O.2        1 UNL1     -0.2917
     26 O         1.779937   4.451174   7.435434 O.3        1 UNL1     -0.5058
     27 O         2.058304   0.492504   1.439013 O.3        1 UNL1     -0.3648
     28 O         -1.125666   -1.193314   1.232763 O.3        1 UNL1     -0.3841
     29 O         -0.916912   2.288999   0.407678 O.3        1 UNL1     -0.3863
     30 O         -2.217523   0.640935   3.42304 O.3        1 UNL1     -0.3829
     31 H         1.106685   -1.106674   2.156675 H        1 UNL1     0.0937
     32 H         0.0   0.0   0.0 H        1 UNL1     0.0671
     33 H         -2.289287   0.9004   0.929328 H        1 UNL1     0.0649
     34 H         -1.905319   2.574181   2.809015 H        1 UNL1     0.0683
     35 H         -0.280713   1.823184   4.485592 H        1 UNL1     0.1085
     36 H         0.267033   3.43169   5.652435 H        1 UNL1     0.0691
     37 H         3.218684   3.450839   2.503215 H        1 UNL1     0.0691
     38 H         6.327305   3.880853   6.234727 H        1 UNL1     0.0385
     39 H         6.577711   5.553445   6.77164 H        1 UNL1     0.0385
     40 H         6.925246   5.23064   4.292857 H        1 UNL1     0.0789
     41 H         5.154857   6.664501   2.402339 H        1 UNL1     0.0623
     42 H         4.724296   9.064496   2.060545 H        1 UNL1     0.0654
     43 H         5.484555   9.805593   6.222535 H        1 UNL1     0.0654
     44 H         5.879275   7.437341   6.598742 H        1 UNL1     0.0623
     45 H         5.577637   11.225697   3.271658 H        1 UNL1     0.2921
     46 H         2.363943   3.996402   8.062754 H        1 UNL1     0.2922
     47 H         2.258655   0.057178   0.59865 H        1 UNL1     0.2126
     48 H         -0.616015   -1.926503   0.837261 H        1 UNL1     0.2101
     49 H         -1.275702   2.148876   -0.483069 H        1 UNL1     0.2100
     50 H         -3.131977   0.718383   3.080274 H        1 UNL1     0.2102
@<TRIPOS>BOND
     1     1     2    1
     2     1     6    1
     3     2     3    1
     4     3     4    1
     5     3    29    1
     6     3    33    1
     7     4     5    1
     8     5     6    1
     9     5     7    1
    10     5    35    1
    11     7     8    1
    12     8     9   ar
    13     8    13   ar
    14     9    10   ar
    15     9    36    1
    16    10    11   ar
    17    10    26    1
    18    11    12   ar
    19    11    14    1
    20    12    13   ar
    21    12    17    1
    22    13    37    1
    23    14    15    1
    24    14    25    2
    25    15    16    1
    26    15    38    1
    27    15    39    1
    28    16    17    1
    29    16    18    1
    30    16    40    1
    31    18    19   ar
    32    18    23   ar
    33    19    20   ar
    34    19    41    1
    35    20    21   ar
    36    20    42    1
    37    21    22   ar
    38    21    24    1
    39    22    23   ar
    40    22    43    1
    41    23    44    1
    42    24    45    1
    43    26    46    1
    44    27    47    1
    45    28    48    1
    46    29    49    1
    47    30    50    1
    48     1    31    1
    49     1    27    1
    50     2    32    1
    51     2    28    1
    52     4    34    1
    53     4    30    1
