@<TRIPOS>MOLECULE
*****
 50 53 0 0 0
SMALL
GASTEIGER

@<TRIPOS>ATOM
     1 C         0.69805   -1.440761   1.485846 C.3        1 UNL1     0.1889
     2 C         -0.427052   -0.774573   0.649019 C.3        1 UNL1     0.1342
     3 C         -1.565751   -0.161506   1.478462 C.3        1 UNL1     0.1174
     4 C         -1.870047   -0.958708   2.749285 C.3        1 UNL1     0.1456
     5 C         -0.596814   -1.336605   3.528025 C.3        1 UNL1     0.2326
     6 O         0.285832   -2.075956   2.687095 O.3        1 UNL1     -0.3076
     7 O         0.03827   -0.214501   4.167456 O.3        1 UNL1     -0.4605
     8 C         0.693678   -0.484798   5.355272 C.ar        1 UNL1     0.1310
     9 C         0.092151   -0.975261   6.519279 C.ar        1 UNL1     0.0226
     10 C         0.846465   -1.234093   7.669896 C.ar        1 UNL1     0.1343
     11 C         2.2258   -1.03105   7.676859 C.ar        1 UNL1     0.1007
     12 C         2.831511   -0.502764   6.5337 C.ar        1 UNL1     0.1389
     13 C         2.072423   -0.240097   5.37775 C.ar        1 UNL1     0.0229
     14 C         3.083368   -1.366867   8.837013 C.2        1 UNL1     0.1740
     15 C         4.562268   -1.295215   8.593558 C.3        1 UNL1     0.0520
     16 C         4.850308   -0.072202   7.733773 C.3        1 UNL1     0.1322
     17 O         4.162756   -0.162865   6.466444 O.3        1 UNL1     -0.4828
     18 C         4.655215   1.256728   8.467672 C.ar        1 UNL1     -0.0067
     19 C         5.629578   1.687198   9.391537 C.ar        1 UNL1     -0.0516
     20 C         5.459266   2.873875   10.114554 C.ar        1 UNL1     -0.0198
     21 C         4.318111   3.633483   9.928569 C.ar        1 UNL1     0.1169
     22 C         3.356539   3.253031   9.001491 C.ar        1 UNL1     -0.0198
     23 C         3.53532   2.075944   8.264905 C.ar        1 UNL1     -0.0516
     24 O         4.169099   4.763324   10.678004 O.3        1 UNL1     -0.5068
     25 O         2.641123   -1.758864   9.913695 O.2        1 UNL1     -0.2917
     26 O         0.199057   -1.71041   8.772425 O.3        1 UNL1     -0.5058
     27 O         1.819795   -0.598254   1.697166 O.3        1 UNL1     -0.3648
     28 O         -1.010885   -1.77366   -0.207527 O.3        1 UNL1     -0.3841
     29 O         -1.315657   1.221127   1.739064 O.3        1 UNL1     -0.3863
     30 O         -2.572228   -2.169193   2.392415 O.3        1 UNL1     -0.3829
     31 H         1.090574   -2.265886   0.881551 H        1 UNL1     0.0937
     32 H         0.0   0.0   0.0 H        1 UNL1     0.0671
     33 H         -2.47686   -0.182506   0.864329 H        1 UNL1     0.0649
     34 H         -2.535474   -0.382647   3.401788 H        1 UNL1     0.0683
     35 H         -0.954938   -2.028154   4.300932 H        1 UNL1     0.1085
     36 H         -0.966587   -1.206637   6.560007 H        1 UNL1     0.0691
     37 H         2.567616   0.172015   4.501142 H        1 UNL1     0.0691
     38 H         4.858612   -2.216791   8.081304 H        1 UNL1     0.0385
     39 H         5.083069   -1.256431   9.556387 H        1 UNL1     0.0385
     40 H         5.916269   -0.105168   7.470789 H        1 UNL1     0.0789
     41 H         6.529799   1.104022   9.562294 H        1 UNL1     0.0623
     42 H         6.212174   3.189015   10.832765 H        1 UNL1     0.0654
     43 H         2.466268   3.848245   8.837021 H        1 UNL1     0.0654
     44 H         2.769004   1.814524   7.541534 H        1 UNL1     0.0623
     45 H         4.342753   4.540329   11.606893 H        1 UNL1     0.2921
     46 H         0.710072   -2.439621   9.157816 H        1 UNL1     0.2922
     47 H         2.13671   -0.244965   0.854189 H        1 UNL1     0.2126
     48 H         -0.355084   -1.960578   -0.906611 H        1 UNL1     0.2101
     49 H         -0.935154   1.32629   2.625604 H        1 UNL1     0.2100
     50 H         -3.454836   -1.916207   2.050781 H        1 UNL1     0.2102
@<TRIPOS>BOND
     1     1     2    1
     2     1     6    1
     3     2     3    1
     4     3     4    1
     5     3    29    1
     6     3    33    1
     7     4     5    1
     8     5     6    1
     9     5     7    1
    10     5    35    1
    11     7     8    1
    12     8     9   ar
    13     8    13   ar
    14     9    10   ar
    15     9    36    1
    16    10    11   ar
    17    10    26    1
    18    11    12   ar
    19    11    14    1
    20    12    13   ar
    21    12    17    1
    22    13    37    1
    23    14    15    1
    24    14    25    2
    25    15    16    1
    26    15    38    1
    27    15    39    1
    28    16    17    1
    29    16    18    1
    30    16    40    1
    31    18    19   ar
    32    18    23   ar
    33    19    20   ar
    34    19    41    1
    35    20    21   ar
    36    20    42    1
    37    21    22   ar
    38    21    24    1
    39    22    23   ar
    40    22    43    1
    41    23    44    1
    42    24    45    1
    43    26    46    1
    44    27    47    1
    45    28    48    1
    46    29    49    1
    47    30    50    1
    48     1    31    1
    49     1    27    1
    50     2    32    1
    51     2    28    1
    52     4    34    1
    53     4    30    1
