@<TRIPOS>MOLECULE
*****
 50 53 0 0 0
SMALL
GASTEIGER

@<TRIPOS>ATOM
     1 C         -0.374491   -1.604343   1.4341 C.3        1 UNL1     0.1889
     2 C         -0.377691   -1.029974   -0.008131 C.3        1 UNL1     0.1342
     3 C         -1.74626   -1.056357   -0.705831 C.3        1 UNL1     0.1174
     4 C         -2.58441   -2.27851   -0.322469 C.3        1 UNL1     0.1456
     5 C         -2.59689   -2.532904   1.195916 C.3        1 UNL1     0.2326
     6 O         -1.262442   -2.686173   1.674063 O.3        1 UNL1     -0.3076
     7 O         -3.353997   -1.556851   1.934448 O.3        1 UNL1     -0.4605
     8 C         -3.981871   -2.015644   3.07848 C.ar        1 UNL1     0.1310
     9 C         -3.417752   -2.03903   4.358528 C.ar        1 UNL1     0.0226
     10 C         -4.142636   -2.508368   5.460422 C.ar        1 UNL1     0.1343
     11 C         -5.458827   -2.943921   5.312861 C.ar        1 UNL1     0.1007
     12 C         -6.018973   -2.963742   4.032772 C.ar        1 UNL1     0.1389
     13 C         -5.288992   -2.49425   2.924559 C.ar        1 UNL1     0.0229
     14 C         -6.298656   -3.371077   6.45583 C.2        1 UNL1     0.1740
     15 C         -7.750378   -3.592738   6.147744 C.3        1 UNL1     0.0520
     16 C         -7.85577   -4.284786   4.795738 C.3        1 UNL1     0.1322
     17 O         -7.266918   -3.472229   3.756472 O.3        1 UNL1     -0.4828
     18 C         -7.380324   -5.739601   4.809485 C.ar        1 UNL1     -0.0067
     19 C         -6.050327   -6.036978   4.447701 C.ar        1 UNL1     -0.0516
     20 C         -5.59666   -7.360697   4.403931 C.ar        1 UNL1     -0.0198
     21 C         -6.463302   -8.3941   4.71189 C.ar        1 UNL1     0.1169
     22 C         -7.769333   -8.130958   5.104161 C.ar        1 UNL1     -0.0198
     23 C         -8.218008   -6.806217   5.165871 C.ar        1 UNL1     -0.0516
     24 O         -5.996606   -9.672555   4.621611 O.3        1 UNL1     -0.5068
     25 O         -5.877588   -3.466977   7.605608 O.2        1 UNL1     -0.2917
     26 O         -3.534254   -2.505906   6.681671 O.3        1 UNL1     -0.5058
     27 O         -0.478341   -0.608662   2.439396 O.3        1 UNL1     -0.3648
     28 O         0.527792   -1.809352   -0.811484 O.3        1 UNL1     -0.3841
     29 O         -2.441228   0.176174   -0.50578 O.3        1 UNL1     -0.3863
     30 O         -2.050249   -3.445752   -0.984215 O.3        1 UNL1     -0.3829
     31 H         0.615529   -2.045622   1.592885 H        1 UNL1     0.0937
     32 H         0.0   0.0   0.0 H        1 UNL1     0.0671
     33 H         -1.569482   -1.119209   -1.78866 H        1 UNL1     0.0649
     34 H         -3.613547   -2.15218   -0.676471 H        1 UNL1     0.0683
     35 H         -3.085904   -3.509964   1.296412 H        1 UNL1     0.1085
     36 H         -2.418816   -1.661944   4.548403 H        1 UNL1     0.0691
     37 H         -5.74739   -2.521208   1.938335 H        1 UNL1     0.0691
     38 H         -8.238342   -2.612403   6.128736 H        1 UNL1     0.0385
     39 H         -8.201744   -4.183949   6.951807 H        1 UNL1     0.0385
     40 H         -8.922453   -4.330101   4.537565 H        1 UNL1     0.0789
     41 H         -5.35308   -5.244227   4.192663 H        1 UNL1     0.0623
     42 H         -4.572166   -7.577859   4.11193 H        1 UNL1     0.0654
     43 H         -8.452067   -8.931773   5.361997 H        1 UNL1     0.0654
     44 H         -9.241367   -6.636681   5.486556 H        1 UNL1     0.0623
     45 H         -5.706517   -9.956155   5.503731 H        1 UNL1     0.2921
     46 H         -2.579857   -2.373694   6.567397 H        1 UNL1     0.2922
     47 H         0.339327   -0.093818   2.486451 H        1 UNL1     0.2126
     48 H         1.026778   -1.177064   -1.363713 H        1 UNL1     0.2101
     49 H         -3.077641   0.082026   0.220793 H        1 UNL1     0.2100
     50 H         -2.352405   -3.428842   -1.915949 H        1 UNL1     0.2102
@<TRIPOS>BOND
     1     1     2    1
     2     1     6    1
     3     2     3    1
     4     3     4    1
     5     3    29    1
     6     3    33    1
     7     4     5    1
     8     5     6    1
     9     5     7    1
    10     5    35    1
    11     7     8    1
    12     8     9   ar
    13     8    13   ar
    14     9    10   ar
    15     9    36    1
    16    10    11   ar
    17    10    26    1
    18    11    12   ar
    19    11    14    1
    20    12    13   ar
    21    12    17    1
    22    13    37    1
    23    14    15    1
    24    14    25    2
    25    15    16    1
    26    15    38    1
    27    15    39    1
    28    16    17    1
    29    16    18    1
    30    16    40    1
    31    18    19   ar
    32    18    23   ar
    33    19    20   ar
    34    19    41    1
    35    20    21   ar
    36    20    42    1
    37    21    22   ar
    38    21    24    1
    39    22    23   ar
    40    22    43    1
    41    23    44    1
    42    24    45    1
    43    26    46    1
    44    27    47    1
    45    28    48    1
    46    29    49    1
    47    30    50    1
    48     1    31    1
    49     1    27    1
    50     2    32    1
    51     2    28    1
    52     4    34    1
    53     4    30    1
