@<TRIPOS>MOLECULE
*****
 50 53 0 0 0
SMALL
GASTEIGER

@<TRIPOS>ATOM
     1 C         0.850617   1.986338   -0.318928 C.3        1 UNL1     0.1889
     2 C         0.399216   0.592617   -0.832463 C.3        1 UNL1     0.1342
     3 C         1.496425   -0.215565   -1.541998 C.3        1 UNL1     0.1174
     4 C         2.459461   0.665573   -2.341544 C.3        1 UNL1     0.1456
     5 C         2.935673   1.893691   -1.54448 C.3        1 UNL1     0.2326
     6 O         1.812591   2.660766   -1.116518 O.3        1 UNL1     -0.3076
     7 O         3.83895   1.566537   -0.472854 O.3        1 UNL1     -0.4605
     8 C         4.732701   2.557826   -0.109421 C.ar        1 UNL1     0.1310
     9 C         6.019585   2.72054   -0.633591 C.ar        1 UNL1     0.0226
     10 C         6.845459   3.769429   -0.212085 C.ar        1 UNL1     0.1343
     11 C         6.395124   4.695983   0.72735 C.ar        1 UNL1     0.1007
     12 C         5.127329   4.520053   1.288176 C.ar        1 UNL1     0.1389
     13 C         4.298113   3.463783   0.866127 C.ar        1 UNL1     0.0229
     14 C         7.193718   5.87108   1.146336 C.2        1 UNL1     0.1740
     15 C         6.471211   6.879578   1.990412 C.3        1 UNL1     0.0520
     16 C         5.592211   6.134098   2.985186 C.3        1 UNL1     0.1322
     17 O         4.626223   5.308601   2.297805 O.3        1 UNL1     -0.4828
     18 C         6.378645   5.411194   4.081387 C.ar        1 UNL1     -0.0067
     19 C         6.869218   4.111586   3.839372 C.ar        1 UNL1     -0.0516
     20 C         7.551208   3.403992   4.836448 C.ar        1 UNL1     -0.0198
     21 C         7.742197   3.980816   6.079277 C.ar        1 UNL1     0.1169
     22 C         7.300142   5.271923   6.33709 C.ar        1 UNL1     -0.0198
     23 C         6.634322   5.986813   5.334258 C.ar        1 UNL1     -0.0516
     24 O         8.377505   3.246913   7.03749 O.3        1 UNL1     -0.5068
     25 O         8.34725   6.071679   0.775378 O.2        1 UNL1     -0.2917
     26 O         8.090089   3.871693   -0.76165 O.3        1 UNL1     -0.5058
     27 O         1.210066   1.99395   1.053488 O.3        1 UNL1     -0.3648
     28 O         -0.672841   0.779129   -1.775125 O.3        1 UNL1     -0.3841
     29 O         2.169086   -1.075642   -0.620084 O.3        1 UNL1     -0.3863
     30 O         1.799415   1.119586   -3.543168 O.3        1 UNL1     -0.3829
     31 H         -0.027969   2.638591   -0.371185 H        1 UNL1     0.0937
     32 H         0.0   -0.0   0.0 H        1 UNL1     0.0671
     33 H         1.00662   -0.885788   -2.262145 H        1 UNL1     0.0649
     34 H         3.329673   0.07884   -2.655988 H        1 UNL1     0.0683
     35 H         3.471371   2.499079   -2.286377 H        1 UNL1     0.1085
     36 H         6.406964   2.06686   -1.407387 H        1 UNL1     0.0691
     37 H         3.315811   3.348   1.319085 H        1 UNL1     0.0691
     38 H         5.868839   7.501874   1.320021 H        1 UNL1     0.0385
     39 H         7.204949   7.523284   2.487452 H        1 UNL1     0.0385
     40 H         4.987108   6.886093   3.509469 H        1 UNL1     0.0789
     41 H         6.724166   3.633249   2.875108 H        1 UNL1     0.0623
     42 H         7.914254   2.397924   4.641416 H        1 UNL1     0.0654
     43 H         7.457615   5.738913   7.301991 H        1 UNL1     0.0654
     44 H         6.311938   6.997136   5.566983 H        1 UNL1     0.0623
     45 H         8.005734   2.34998   7.033569 H        1 UNL1     0.2921
     46 H         8.485002   4.722126   -0.512211 H        1 UNL1     0.2922
     47 H         0.631948   2.591774   1.547699 H        1 UNL1     0.2126
     48 H         -0.674483   -0.006094   -2.355777 H        1 UNL1     0.2101
     49 H         1.712898   -1.06271   0.236374 H        1 UNL1     0.2100
     50 H         2.405696   0.964982   -4.296981 H        1 UNL1     0.2102
@<TRIPOS>BOND
     1     1     2    1
     2     1     6    1
     3     2     3    1
     4     3     4    1
     5     3    29    1
     6     3    33    1
     7     4     5    1
     8     5     6    1
     9     5     7    1
    10     5    35    1
    11     7     8    1
    12     8     9   ar
    13     8    13   ar
    14     9    10   ar
    15     9    36    1
    16    10    11   ar
    17    10    26    1
    18    11    12   ar
    19    11    14    1
    20    12    13   ar
    21    12    17    1
    22    13    37    1
    23    14    15    1
    24    14    25    2
    25    15    16    1
    26    15    38    1
    27    15    39    1
    28    16    17    1
    29    16    18    1
    30    16    40    1
    31    18    19   ar
    32    18    23   ar
    33    19    20   ar
    34    19    41    1
    35    20    21   ar
    36    20    42    1
    37    21    22   ar
    38    21    24    1
    39    22    23   ar
    40    22    43    1
    41    23    44    1
    42    24    45    1
    43    26    46    1
    44    27    47    1
    45    28    48    1
    46    29    49    1
    47    30    50    1
    48     1    31    1
    49     1    27    1
    50     2    32    1
    51     2    28    1
    52     4    34    1
    53     4    30    1
