@<TRIPOS>MOLECULE
*****
 50 53 0 0 0
SMALL
GASTEIGER

@<TRIPOS>ATOM
     1 C         0.55902   1.444793   -1.539764 C.3        1 UNL1     0.1889
     2 C         0.693923   0.841822   -0.115627 C.3        1 UNL1     0.1342
     3 C         0.464198   1.841351   1.028328 C.3        1 UNL1     0.1174
     4 C         0.967756   3.248421   0.697116 C.3        1 UNL1     0.1456
     5 C         0.53353   3.716101   -0.703986 C.3        1 UNL1     0.2326
     6 O         0.988409   2.790156   -1.688149 O.3        1 UNL1     -0.3076
     7 O         -0.873758   4.000935   -0.802643 O.3        1 UNL1     -0.4605
     8 C         -1.244157   4.890061   -1.795511 C.ar        1 UNL1     0.1310
     9 C         -0.388543   5.794258   -2.433989 C.ar        1 UNL1     0.0226
     10 C         -0.856562   6.64452   -3.442906 C.ar        1 UNL1     0.1343
     11 C         -2.187627   6.594471   -3.854736 C.ar        1 UNL1     0.1007
     12 C         -3.060896   5.724561   -3.196373 C.ar        1 UNL1     0.1389
     13 C         -2.590652   4.871597   -2.180127 C.ar        1 UNL1     0.0229
     14 C         -2.71597   7.410285   -4.972526 C.2        1 UNL1     0.1740
     15 C         -4.105219   7.068997   -5.425362 C.3        1 UNL1     0.0520
     16 C         -4.955293   6.779721   -4.19587 C.3        1 UNL1     0.1322
     17 O         -4.412449   5.670218   -3.446609 O.3        1 UNL1     -0.4828
     18 C         -5.266251   8.020846   -3.355849 C.ar        1 UNL1     -0.0067
     19 C         -4.298989   9.040538   -3.242508 C.ar        1 UNL1     -0.0516
     20 C         -4.532514   10.16661   -2.444139 C.ar        1 UNL1     -0.0198
     21 C         -5.723593   10.281013   -1.749826 C.ar        1 UNL1     0.1169
     22 C         -6.709055   9.309523   -1.867768 C.ar        1 UNL1     -0.0198
     23 C         -6.483264   8.192249   -2.680649 C.ar        1 UNL1     -0.0516
     24 O         -5.900126   11.373424   -0.952409 O.3        1 UNL1     -0.5068
     25 O         -2.05349   8.260883   -5.560818 O.2        1 UNL1     -0.2917
     26 O         0.028967   7.503994   -4.024909 O.3        1 UNL1     -0.5058
     27 O         -0.716558   1.234658   -2.12417 O.3        1 UNL1     -0.3648
     28 O         2.026851   0.318681   0.033809 O.3        1 UNL1     -0.3841
     29 O         -0.90185   1.826858   1.447653 O.3        1 UNL1     -0.3863
     30 O         2.410269   3.263539   0.765065 O.3        1 UNL1     -0.3829
     31 H         1.246032   0.884303   -2.183149 H        1 UNL1     0.0937
     32 H         0.0   0.0   0.0 H        1 UNL1     0.0671
     33 H         1.039949   1.494203   1.897648 H        1 UNL1     0.0649
     34 H         0.604129   3.961505   1.445239 H        1 UNL1     0.0683
     35 H         1.094459   4.646441   -0.857952 H        1 UNL1     0.1085
     36 H         0.668913   5.84238   -2.198213 H        1 UNL1     0.0691
     37 H         -3.290994   4.204318   -1.682379 H        1 UNL1     0.0691
     38 H         -4.035476   6.188762   -6.073319 H        1 UNL1     0.0385
     39 H         -4.503665   7.899406   -6.018187 H        1 UNL1     0.0385
     40 H         -5.929359   6.419237   -4.553317 H        1 UNL1     0.0789
     41 H         -3.352321   8.969923   -3.770224 H        1 UNL1     0.0623
     42 H         -3.773975   10.940408   -2.355452 H        1 UNL1     0.0654
     43 H         -7.651477   9.396428   -1.340323 H        1 UNL1     0.0654
     44 H         -7.279277   7.457922   -2.757934 H        1 UNL1     0.0623
     45 H         -5.257134   11.330145   -0.226183 H        1 UNL1     0.2921
     46 H         -0.381868   8.378083   -4.117615 H        1 UNL1     0.2922
     47 H         -1.055165   0.360932   -1.883736 H        1 UNL1     0.2126
     48 H         2.616081   0.903315   -0.480723 H        1 UNL1     0.2101
     49 H         -0.969496   2.142515   2.362847 H        1 UNL1     0.2100
     50 H         2.668121   3.219235   1.709132 H        1 UNL1     0.2102
@<TRIPOS>BOND
     1     1     2    1
     2     1     6    1
     3     2     3    1
     4     3     4    1
     5     3    29    1
     6     3    33    1
     7     4     5    1
     8     5     6    1
     9     5     7    1
    10     5    35    1
    11     7     8    1
    12     8     9   ar
    13     8    13   ar
    14     9    10   ar
    15     9    36    1
    16    10    11   ar
    17    10    26    1
    18    11    12   ar
    19    11    14    1
    20    12    13   ar
    21    12    17    1
    22    13    37    1
    23    14    15    1
    24    14    25    2
    25    15    16    1
    26    15    38    1
    27    15    39    1
    28    16    17    1
    29    16    18    1
    30    16    40    1
    31    18    19   ar
    32    18    23   ar
    33    19    20   ar
    34    19    41    1
    35    20    21   ar
    36    20    42    1
    37    21    22   ar
    38    21    24    1
    39    22    23   ar
    40    22    43    1
    41    23    44    1
    42    24    45    1
    43    26    46    1
    44    27    47    1
    45    28    48    1
    46    29    49    1
    47    30    50    1
    48     1    31    1
    49     1    27    1
    50     2    32    1
    51     2    28    1
    52     4    34    1
    53     4    30    1
