@<TRIPOS>MOLECULE
*****
 50 53 0 0 0
SMALL
GASTEIGER

@<TRIPOS>ATOM
     1 C         1.884802   -0.461673   1.002589 C.3        1 UNL1     0.1889
     2 C         0.937265   -0.523673   -0.225528 C.3        1 UNL1     0.1342
     3 C         0.612833   -1.943713   -0.714092 C.3        1 UNL1     0.1174
     4 C         1.789152   -2.909908   -0.553293 C.3        1 UNL1     0.1456
     5 C         2.450682   -2.808825   0.833258 C.3        1 UNL1     0.2326
     6 O         2.881856   -1.470521   1.069696 O.3        1 UNL1     -0.3076
     7 O         1.637241   -3.337418   1.896378 O.3        1 UNL1     -0.4605
     8 C         2.127862   -4.463534   2.532525 C.ar        1 UNL1     0.1310
     9 C         1.489905   -5.150122   3.571229 C.ar        1 UNL1     0.0226
     10 C         2.061349   -6.294245   4.140735 C.ar        1 UNL1     0.1343
     11 C         3.274426   -6.793757   3.668748 C.ar        1 UNL1     0.1007
     12 C         3.940839   -6.093343   2.659739 C.ar        1 UNL1     0.1389
     13 C         3.367322   -4.941455   2.08907 C.ar        1 UNL1     0.0229
     14 C         3.882205   -8.045449   4.17671 C.2        1 UNL1     0.1740
     15 C         5.066309   -8.551461   3.406386 C.3        1 UNL1     0.0520
     16 C         5.932258   -7.36125   3.017173 C.3        1 UNL1     0.1322
     17 O         5.189847   -6.43408   2.194828 O.3        1 UNL1     -0.4828
     18 C         6.661859   -6.717517   4.198703 C.ar        1 UNL1     -0.0067
     19 C         6.452816   -5.351911   4.480903 C.ar        1 UNL1     -0.0516
     20 C         7.140121   -4.720672   5.524509 C.ar        1 UNL1     -0.0198
     21 C         8.042554   -5.440649   6.286792 C.ar        1 UNL1     0.1169
     22 C         8.244999   -6.794884   6.054621 C.ar        1 UNL1     -0.0198
     23 C         7.544099   -7.430775   5.022905 C.ar        1 UNL1     -0.0516
     24 O         8.721438   -4.783112   7.270235 O.3        1 UNL1     -0.5068
     25 O         3.41945   -8.689737   5.114386 O.2        1 UNL1     -0.2917
     26 O         1.388642   -6.916891   5.15136 O.3        1 UNL1     -0.5058
     27 O         1.201169   -0.317986   2.237411 O.3        1 UNL1     -0.3648
     28 O         1.562084   0.173377   -1.319341 O.3        1 UNL1     -0.3841
     29 O         -0.587243   -2.426957   -0.10711 O.3        1 UNL1     -0.3863
     30 O         2.780764   -2.621171   -1.562761 O.3        1 UNL1     -0.3829
     31 H         2.462991   0.463688   0.905203 H        1 UNL1     0.0937
     32 H         -0.0   0.0   0.0 H        1 UNL1     0.0671
     33 H         0.393326   -1.886426   -1.789385 H        1 UNL1     0.0649
     34 H         1.452955   -3.939362   -0.719416 H        1 UNL1     0.0683
     35 H         3.354795   -3.423514   0.740432 H        1 UNL1     0.1085
     36 H         0.518561   -4.844736   3.944528 H        1 UNL1     0.0691
     37 H         3.906839   -4.413634   1.305604 H        1 UNL1     0.0691
     38 H         4.687247   -9.070823   2.519762 H        1 UNL1     0.0385
     39 H         5.610994   -9.276489   4.02074 H        1 UNL1     0.0385
     40 H         6.724818   -7.739556   2.357436 H        1 UNL1     0.0789
     41 H         5.756555   -4.762649   3.891292 H        1 UNL1     0.0623
     42 H         6.979117   -3.664238   5.724599 H        1 UNL1     0.0654
     43 H         8.938171   -7.371732   6.655179 H        1 UNL1     0.0654
     44 H         7.71902   -8.492277   4.876413 H        1 UNL1     0.0623
     45 H         9.527237   -4.402479   6.884847 H        1 UNL1     0.2921
     46 H         1.842792   -7.742823   5.381566 H        1 UNL1     0.2922
     47 H         1.460121   -1.022719   2.847457 H        1 UNL1     0.2126
     48 H         0.841978   0.573417   -1.843886 H        1 UNL1     0.2101
     49 H         -0.954546   -1.749626   0.482895 H        1 UNL1     0.2100
     50 H         2.311218   -2.334528   -2.373362 H        1 UNL1     0.2102
@<TRIPOS>BOND
     1     1     2    1
     2     1     6    1
     3     2     3    1
     4     3     4    1
     5     3    29    1
     6     3    33    1
     7     4     5    1
     8     5     6    1
     9     5     7    1
    10     5    35    1
    11     7     8    1
    12     8     9   ar
    13     8    13   ar
    14     9    10   ar
    15     9    36    1
    16    10    11   ar
    17    10    26    1
    18    11    12   ar
    19    11    14    1
    20    12    13   ar
    21    12    17    1
    22    13    37    1
    23    14    15    1
    24    14    25    2
    25    15    16    1
    26    15    38    1
    27    15    39    1
    28    16    17    1
    29    16    18    1
    30    16    40    1
    31    18    19   ar
    32    18    23   ar
    33    19    20   ar
    34    19    41    1
    35    20    21   ar
    36    20    42    1
    37    21    22   ar
    38    21    24    1
    39    22    23   ar
    40    22    43    1
    41    23    44    1
    42    24    45    1
    43    26    46    1
    44    27    47    1
    45    28    48    1
    46    29    49    1
    47    30    50    1
    48     1    31    1
    49     1    27    1
    50     2    32    1
    51     2    28    1
    52     4    34    1
    53     4    30    1
