@<TRIPOS>MOLECULE
*****
 50 53 0 0 0
SMALL
GASTEIGER

@<TRIPOS>ATOM
     1 C         -0.330046   -1.327171   1.703083 C.3        1 UNL1     0.1889
     2 C         -0.461526   -0.975627   0.196739 C.3        1 UNL1     0.1342
     3 C         -1.902622   -0.964772   -0.335793 C.3        1 UNL1     0.1174
     4 C         -2.787705   -2.024235   0.325481 C.3        1 UNL1     0.1456
     5 C         -2.635348   -2.048147   1.857336 C.3        1 UNL1     0.2326
     6 O         -1.270101   -2.264759   2.206691 O.3        1 UNL1     -0.3076
     7 O         -3.21095   -0.901041   2.508604 O.3        1 UNL1     -0.4605
     8 C         -3.719694   -1.115817   3.776902 C.ar        1 UNL1     0.1310
     9 C         -4.534775   -2.189244   4.151999 C.ar        1 UNL1     0.0226
     10 C         -4.986809   -2.328851   5.469602 C.ar        1 UNL1     0.1343
     11 C         -4.61479   -1.410433   6.450393 C.ar        1 UNL1     0.1007
     12 C         -3.834926   -0.311937   6.07904 C.ar        1 UNL1     0.1389
     13 C         -3.382717   -0.170354   4.753562 C.ar        1 UNL1     0.0229
     14 C         -4.994451   -1.555319   7.874829 C.2        1 UNL1     0.1740
     15 C         -4.325862   -0.605549   8.824816 C.3        1 UNL1     0.0520
     16 C         -4.258303   0.765891   8.167134 C.3        1 UNL1     0.1322
     17 O         -3.500411   0.708647   6.93856 O.3        1 UNL1     -0.4828
     18 C         -5.618301   1.456866   8.041911 C.ar        1 UNL1     -0.0067
     19 C         -5.998693   2.018174   6.805606 C.ar        1 UNL1     -0.0516
     20 C         -7.214711   2.698388   6.669328 C.ar        1 UNL1     -0.0198
     21 C         -8.053874   2.830194   7.761234 C.ar        1 UNL1     0.1169
     22 C         -7.722267   2.259438   8.983164 C.ar        1 UNL1     -0.0198
     23 C         -6.514779   1.563261   9.114945 C.ar        1 UNL1     -0.0516
     24 O         -9.212356   3.531915   7.600279 O.3        1 UNL1     -0.5068
     25 O         -5.742128   -2.43736   8.288917 O.2        1 UNL1     -0.2917
     26 O         -5.779896   -3.397662   5.770004 O.3        1 UNL1     -0.5058
     27 O         -0.225305   -0.188149   2.542395 O.3        1 UNL1     -0.3648
     28 O         0.26947   -1.954086   -0.565474 O.3        1 UNL1     -0.3841
     29 O         -2.461135   0.348439   -0.260477 O.3        1 UNL1     -0.3863
     30 O         -2.439305   -3.325179   -0.195914 O.3        1 UNL1     -0.3829
     31 H         0.631108   -1.839124   1.8221 H        1 UNL1     0.0937
     32 H         0.0   0.0   0.0 H        1 UNL1     0.0671
     33 H         -1.865915   -1.205194   -1.407507 H        1 UNL1     0.0649
     34 H         -3.838099   -1.847002   0.069235 H        1 UNL1     0.0683
     35 H         -3.189163   -2.944221   2.164287 H        1 UNL1     0.1085
     36 H         -4.812901   -2.966859   3.44909 H        1 UNL1     0.0691
     37 H         -2.777677   0.694425   4.489789 H        1 UNL1     0.0691
     38 H         -3.323011   -0.994523   9.03101 H        1 UNL1     0.0385
     39 H         -4.885461   -0.586174   9.766225 H        1 UNL1     0.0385
     40 H         -3.663595   1.412256   8.826722 H        1 UNL1     0.0789
     41 H         -5.353378   1.936263   5.93583 H        1 UNL1     0.0623
     42 H         -7.491334   3.137111   5.71381 H        1 UNL1     0.0654
     43 H         -8.378994   2.343705   9.840789 H        1 UNL1     0.0654
     44 H         -6.292578   1.121015   10.081325 H        1 UNL1     0.0623
     45 H         -8.987395   4.439249   7.337878 H        1 UNL1     0.2921
     46 H         -5.374564   -3.909738   6.487566 H        1 UNL1     0.2922
     47 H         0.517178   0.365895   2.263801 H        1 UNL1     0.2126
     48 H         1.202287   -1.887963   -0.284028 H        1 UNL1     0.2101
     49 H         -2.023008   0.930656   -0.901462 H        1 UNL1     0.2100
     50 H         -2.672999   -3.341232   -1.147146 H        1 UNL1     0.2102
@<TRIPOS>BOND
     1     1     2    1
     2     1     6    1
     3     2     3    1
     4     3     4    1
     5     3    29    1
     6     3    33    1
     7     4     5    1
     8     5     6    1
     9     5     7    1
    10     5    35    1
    11     7     8    1
    12     8     9   ar
    13     8    13   ar
    14     9    10   ar
    15     9    36    1
    16    10    11   ar
    17    10    26    1
    18    11    12   ar
    19    11    14    1
    20    12    13   ar
    21    12    17    1
    22    13    37    1
    23    14    15    1
    24    14    25    2
    25    15    16    1
    26    15    38    1
    27    15    39    1
    28    16    17    1
    29    16    18    1
    30    16    40    1
    31    18    19   ar
    32    18    23   ar
    33    19    20   ar
    34    19    41    1
    35    20    21   ar
    36    20    42    1
    37    21    22   ar
    38    21    24    1
    39    22    23   ar
    40    22    43    1
    41    23    44    1
    42    24    45    1
    43    26    46    1
    44    27    47    1
    45    28    48    1
    46    29    49    1
    47    30    50    1
    48     1    31    1
    49     1    27    1
    50     2    32    1
    51     2    28    1
    52     4    34    1
    53     4    30    1
