@<TRIPOS>MOLECULE
*****
 50 53 0 0 0
SMALL
GASTEIGER

@<TRIPOS>ATOM
     1 C         -0.114801   0.906136   1.984072 C.3        1 UNL1     0.1889
     2 C         0.375066   -0.200116   1.011356 C.3        1 UNL1     0.1342
     3 C         -0.015562   -1.629581   1.416946 C.3        1 UNL1     0.1174
     4 C         -0.023446   -1.834925   2.933814 C.3        1 UNL1     0.1456
     5 C         -0.749884   -0.700458   3.679225 C.3        1 UNL1     0.2326
     6 O         -0.150871   0.553146   3.359024 O.3        1 UNL1     -0.3076
     7 O         -2.176421   -0.710987   3.488962 O.3        1 UNL1     -0.4605
     8 C         -2.933265   -0.253563   4.552672 C.ar        1 UNL1     0.1310
     9 C         -2.746318   -0.609693   5.892644 C.ar        1 UNL1     0.0226
     10 C         -3.556632   -0.077688   6.902725 C.ar        1 UNL1     0.1343
     11 C         -4.559188   0.842587   6.599714 C.ar        1 UNL1     0.1007
     12 C         -4.782167   1.174564   5.260738 C.ar        1 UNL1     0.1389
     13 C         -3.968986   0.637473   4.245011 C.ar        1 UNL1     0.0229
     14 C         -5.389227   1.499533   7.635866 C.2        1 UNL1     0.1740
     15 C         -6.260925   2.621878   7.154166 C.3        1 UNL1     0.0520
     16 C         -6.853804   2.227916   5.808341 C.3        1 UNL1     0.1322
     17 O         -5.810046   1.985814   4.839307 O.3        1 UNL1     -0.4828
     18 C         -7.904915   1.119006   5.898949 C.ar        1 UNL1     -0.0067
     19 C         -7.831326   0.021298   5.016999 C.ar        1 UNL1     -0.0516
     20 C         -8.803143   -0.986143   5.041385 C.ar        1 UNL1     -0.0198
     21 C         -9.855151   -0.90387   5.936001 C.ar        1 UNL1     0.1169
     22 C         -9.936683   0.147576   6.839689 C.ar        1 UNL1     -0.0198
     23 C         -8.954942   1.145626   6.827996 C.ar        1 UNL1     -0.0516
     24 O         -10.803147   -1.884044   5.904972 O.3        1 UNL1     -0.5068
     25 O         -5.327866   1.21833   8.829869 O.2        1 UNL1     -0.2917
     26 O         -3.32308   -0.46668   8.189475 O.3        1 UNL1     -0.5058
     27 O         -1.321158   1.528284   1.571249 O.3        1 UNL1     -0.3648
     28 O         1.812579   -0.149869   0.950222 O.3        1 UNL1     -0.3841
     29 O         -1.24618   -2.013281   0.800112 O.3        1 UNL1     -0.3863
     30 O         1.338365   -1.905242   3.409434 O.3        1 UNL1     -0.3829
     31 H         0.629609   1.708897   1.945248 H        1 UNL1     0.0937
     32 H         0.0   0.0   0.0 H        1 UNL1     0.0671
     33 H         0.741488   -2.313013   1.007657 H        1 UNL1     0.0649
     34 H         -0.498488   -2.791209   3.179289 H        1 UNL1     0.0683
     35 H         -0.532502   -0.897018   4.736574 H        1 UNL1     0.1085
     36 H         -1.948318   -1.276979   6.199311 H        1 UNL1     0.0691
     37 H         -4.163829   0.911009   3.210261 H        1 UNL1     0.0691
     38 H         -5.632031   3.513882   7.0628 H        1 UNL1     0.0385
     39 H         -7.033577   2.823448   7.903937 H        1 UNL1     0.0385
     40 H         -7.389585   3.105243   5.421358 H        1 UNL1     0.0789
     41 H         -7.02046   -0.061703   4.299184 H        1 UNL1     0.0623
     42 H         -8.741847   -1.821422   4.348158 H        1 UNL1     0.0654
     43 H         -10.748061   0.213994   7.554647 H        1 UNL1     0.0654
     44 H         -9.044278   1.946933   7.555163 H        1 UNL1     0.0623
     45 H         -11.235196   -1.865437   5.035659 H        1 UNL1     0.2921
     46 H         -3.15673   0.315605   8.73881 H        1 UNL1     0.2922
     47 H         -1.230292   1.870635   0.671027 H        1 UNL1     0.2126
     48 H         2.045949   0.71546   0.562309 H        1 UNL1     0.2101
     49 H         -1.114701   -2.129696   -0.154327 H        1 UNL1     0.2100
     50 H         1.745396   -2.715983   3.039653 H        1 UNL1     0.2102
@<TRIPOS>BOND
     1     1     2    1
     2     1     6    1
     3     2     3    1
     4     3     4    1
     5     3    29    1
     6     3    33    1
     7     4     5    1
     8     5     6    1
     9     5     7    1
    10     5    35    1
    11     7     8    1
    12     8     9   ar
    13     8    13   ar
    14     9    10   ar
    15     9    36    1
    16    10    11   ar
    17    10    26    1
    18    11    12   ar
    19    11    14    1
    20    12    13   ar
    21    12    17    1
    22    13    37    1
    23    14    15    1
    24    14    25    2
    25    15    16    1
    26    15    38    1
    27    15    39    1
    28    16    17    1
    29    16    18    1
    30    16    40    1
    31    18    19   ar
    32    18    23   ar
    33    19    20   ar
    34    19    41    1
    35    20    21   ar
    36    20    42    1
    37    21    22   ar
    38    21    24    1
    39    22    23   ar
    40    22    43    1
    41    23    44    1
    42    24    45    1
    43    26    46    1
    44    27    47    1
    45    28    48    1
    46    29    49    1
    47    30    50    1
    48     1    31    1
    49     1    27    1
    50     2    32    1
    51     2    28    1
    52     4    34    1
    53     4    30    1
