@<TRIPOS>MOLECULE
*****
 50 53 0 0 0
SMALL
GASTEIGER

@<TRIPOS>ATOM
     1 C         -0.320218   -1.335666   1.698311 C.3        1 UNL1     0.1889
     2 C         -0.459313   -0.977161   0.194294 C.3        1 UNL1     0.1342
     3 C         -1.902935   -0.965695   -0.331338 C.3        1 UNL1     0.1174
     4 C         -2.783482   -2.029455   0.329092 C.3        1 UNL1     0.1456
     5 C         -2.623818   -2.060426   1.860076 C.3        1 UNL1     0.2326
     6 O         -1.256645   -2.276878   2.201918 O.3        1 UNL1     -0.3076
     7 O         -3.197816   -0.917185   2.519506 O.3        1 UNL1     -0.4605
     8 C         -3.700249   -1.138646   3.789169 C.ar        1 UNL1     0.1310
     9 C         -4.512137   -2.214921   4.16303 C.ar        1 UNL1     0.0226
     10 C         -4.957723   -2.361372   5.482086 C.ar        1 UNL1     0.1343
     11 C         -4.582248   -1.44712   6.465448 C.ar        1 UNL1     0.1007
     12 C         -3.805592   -0.345842   6.095618 C.ar        1 UNL1     0.1389
     13 C         -3.35987   -0.197377   4.768696 C.ar        1 UNL1     0.0229
     14 C         -4.954948   -1.599261   7.890966 C.2        1 UNL1     0.1740
     15 C         -4.283094   -0.653117   8.842267 C.3        1 UNL1     0.0520
     16 C         -4.22045   0.721513   8.19079 C.3        1 UNL1     0.1322
     17 O         -3.46833   0.6711   6.958376 O.3        1 UNL1     -0.4828
     18 C         -5.581929   1.411268   8.075301 C.ar        1 UNL1     -0.0067
     19 C         -5.968922   1.977924   6.843493 C.ar        1 UNL1     -0.0516
     20 C         -7.186461   2.657161   6.716216 C.ar        1 UNL1     -0.0198
     21 C         -8.020598   2.782675   7.812705 C.ar        1 UNL1     0.1169
     22 C         -7.682445   2.206574   9.030325 C.ar        1 UNL1     -0.0198
     23 C         -6.473436   1.511384   9.15307 C.ar        1 UNL1     -0.0516
     24 O         -9.180747   3.483612   7.66058 O.3        1 UNL1     -0.5068
     25 O         -5.699497   -2.484246   8.304406 O.2        1 UNL1     -0.2917
     26 O         -5.747978   -3.432647   5.781171 O.3        1 UNL1     -0.5058
     27 O         -0.212978   -0.200497   2.542513 O.3        1 UNL1     -0.3648
     28 O         0.269331   -1.951024   -0.576015 O.3        1 UNL1     -0.3841
     29 O         -2.462798   0.346401   -0.247141 O.3        1 UNL1     -0.3863
     30 O         -2.435866   -3.327449   -0.200119 O.3        1 UNL1     -0.3829
     31 H         0.642158   -1.846901   1.810336 H        1 UNL1     0.0937
     32 H         0.0   0.0   0.0 H        1 UNL1     0.0671
     33 H         -1.871006   -1.200986   -1.404343 H        1 UNL1     0.0649
     34 H         -3.835312   -1.852404   0.078677 H        1 UNL1     0.0683
     35 H         -3.174998   -2.95868   2.165395 H        1 UNL1     0.1085
     36 H         -4.792584   -2.989564   3.457766 H        1 UNL1     0.0691
     37 H         -2.75722   0.669446   4.506163 H        1 UNL1     0.0691
     38 H         -3.278767   -1.041732   9.041852 H        1 UNL1     0.0385
     39 H         -4.838239   -0.638948   9.786402 H        1 UNL1     0.0385
     40 H         -3.62346   1.365534   8.850608 H        1 UNL1     0.0789
     41 H         -5.327641   1.900994   5.970286 H        1 UNL1     0.0623
     42 H         -7.468193   3.10004   5.764115 H        1 UNL1     0.0654
     43 H         -8.335199   2.285902   9.891446 H        1 UNL1     0.0654
     44 H         -6.24607   1.064858   10.116275 H        1 UNL1     0.0623
     45 H         -8.958196   4.392666   7.402106 H        1 UNL1     0.2921
     46 H         -5.339088   -3.947002   6.495076 H        1 UNL1     0.2922
     47 H         0.527449   0.355846   2.263033 H        1 UNL1     0.2126
     48 H         1.203563   -1.884261   -0.299453 H        1 UNL1     0.2101
     49 H         -2.028541   0.93221   -0.887486 H        1 UNL1     0.2100
     50 H         -2.674055   -3.339304   -1.150297 H        1 UNL1     0.2102
@<TRIPOS>BOND
     1     1     2    1
     2     1     6    1
     3     2     3    1
     4     3     4    1
     5     3    29    1
     6     3    33    1
     7     4     5    1
     8     5     6    1
     9     5     7    1
    10     5    35    1
    11     7     8    1
    12     8     9   ar
    13     8    13   ar
    14     9    10   ar
    15     9    36    1
    16    10    11   ar
    17    10    26    1
    18    11    12   ar
    19    11    14    1
    20    12    13   ar
    21    12    17    1
    22    13    37    1
    23    14    15    1
    24    14    25    2
    25    15    16    1
    26    15    38    1
    27    15    39    1
    28    16    17    1
    29    16    18    1
    30    16    40    1
    31    18    19   ar
    32    18    23   ar
    33    19    20   ar
    34    19    41    1
    35    20    21   ar
    36    20    42    1
    37    21    22   ar
    38    21    24    1
    39    22    23   ar
    40    22    43    1
    41    23    44    1
    42    24    45    1
    43    26    46    1
    44    27    47    1
    45    28    48    1
    46    29    49    1
    47    30    50    1
    48     1    31    1
    49     1    27    1
    50     2    32    1
    51     2    28    1
    52     4    34    1
    53     4    30    1
