@<TRIPOS>MOLECULE
*****
 50 53 0 0 0
SMALL
GASTEIGER

@<TRIPOS>ATOM
     1 C         -0.335822   -1.330473   1.699374 C.3        1 UNL1     0.1889
     2 C         -0.464582   -0.974771   0.193772 C.3        1 UNL1     0.1342
     3 C         -1.905038   -0.958388   -0.340346 C.3        1 UNL1     0.1174
     4 C         -2.793942   -2.016926   0.317273 C.3        1 UNL1     0.1456
     5 C         -2.643382   -2.045124   1.849233 C.3        1 UNL1     0.2326
     6 O         -1.279165   -2.266582   2.199572 O.3        1 UNL1     -0.3076
     7 O         -3.216381   -0.897985   2.502735 O.3        1 UNL1     -0.4605
     8 C         -3.727602   -1.114565   3.769729 C.ar        1 UNL1     0.1310
     9 C         -4.546522   -2.186468   4.140803 C.ar        1 UNL1     0.0226
     10 C         -5.000872   -2.328186   5.457384 C.ar        1 UNL1     0.1343
     11 C         -4.627433   -1.413531   6.441147 C.ar        1 UNL1     0.1007
     12 C         -3.843658   -0.316461   6.073835 C.ar        1 UNL1     0.1389
     13 C         -3.389115   -0.172748   4.749385 C.ar        1 UNL1     0.0229
     14 C         -5.00958   -1.561036   7.86465 C.2        1 UNL1     0.1740
     15 C         -4.339431   -0.615863   8.818116 C.3        1 UNL1     0.0520
     16 C         -4.266706   0.757108   8.164189 C.3        1 UNL1     0.1322
     17 O         -3.507234   0.700796   6.936549 O.3        1 UNL1     -0.4828
     18 C         -5.624389   1.452604   8.038869 C.ar        1 UNL1     -0.0067
     19 C         -6.000093   2.020819   6.804287 C.ar        1 UNL1     -0.0516
     20 C         -7.213801   2.705189   6.668217 C.ar        1 UNL1     -0.0198
     21 C         -8.055283   2.834291   7.758661 C.ar        1 UNL1     0.1169
     22 C         -7.728354   2.256838   8.978703 C.ar        1 UNL1     -0.0198
     23 C         -6.523212   1.556551   9.11018 C.ar        1 UNL1     -0.0516
     24 O         -9.211332   3.540117   7.598157 O.3        1 UNL1     -0.5068
     25 O         -5.760563   -2.441865   8.27532 O.2        1 UNL1     -0.2917
     26 O         -5.797677   -3.395341   5.753805 O.3        1 UNL1     -0.5058
     27 O         -0.228717   -0.193869   2.54166 O.3        1 UNL1     -0.3648
     28 O         0.264427   -1.953437   -0.570077 O.3        1 UNL1     -0.3841
     29 O         -2.459817   0.356249   -0.262358 O.3        1 UNL1     -0.3863
     30 O         -2.448737   -3.317566   -0.206996 O.3        1 UNL1     -0.3829
     31 H         0.623706   -1.845517   1.818181 H        1 UNL1     0.0937
     32 H         0.0   0.0   0.0 H        1 UNL1     0.0671
     33 H         -1.867822   -1.196227   -1.412618 H        1 UNL1     0.0649
     34 H         -3.843527   -1.835996   0.060297 H        1 UNL1     0.0683
     35 H         -3.200144   -2.94035   2.153312 H        1 UNL1     0.1085
     36 H         -4.826034   -2.961349   3.435429 H        1 UNL1     0.0691
     37 H         -2.781038   0.690861   4.488781 H        1 UNL1     0.0691
     38 H         -3.338079   -1.008474   9.024702 H        1 UNL1     0.0385
     39 H         -4.900317   -0.597267   9.758775 H        1 UNL1     0.0385
     40 H         -3.670957   1.399879   8.826344 H        1 UNL1     0.0789
     41 H         -5.352864   1.941128   5.935728 H        1 UNL1     0.0623
     42 H         -7.486787   3.149199   5.714097 H        1 UNL1     0.0654
     43 H         -8.386959   2.338974   9.835094 H        1 UNL1     0.0654
     44 H         -6.304685   1.109124   10.075011 H        1 UNL1     0.0623
     45 H         -8.983082   4.448207   7.341268 H        1 UNL1     0.2921
     46 H         -5.395469   -3.90999   6.471285 H        1 UNL1     0.2922
     47 H         0.515581   0.358798   2.265184 H        1 UNL1     0.2126
     48 H         1.197297   -1.890001   -0.288188 H        1 UNL1     0.2101
     49 H         -2.019456   0.938731   -0.901569 H        1 UNL1     0.2100
     50 H         -2.681404   -3.330554   -1.158527 H        1 UNL1     0.2102
@<TRIPOS>BOND
     1     1     2    1
     2     1     6    1
     3     2     3    1
     4     3     4    1
     5     3    29    1
     6     3    33    1
     7     4     5    1
     8     5     6    1
     9     5     7    1
    10     5    35    1
    11     7     8    1
    12     8     9   ar
    13     8    13   ar
    14     9    10   ar
    15     9    36    1
    16    10    11   ar
    17    10    26    1
    18    11    12   ar
    19    11    14    1
    20    12    13   ar
    21    12    17    1
    22    13    37    1
    23    14    15    1
    24    14    25    2
    25    15    16    1
    26    15    38    1
    27    15    39    1
    28    16    17    1
    29    16    18    1
    30    16    40    1
    31    18    19   ar
    32    18    23   ar
    33    19    20   ar
    34    19    41    1
    35    20    21   ar
    36    20    42    1
    37    21    22   ar
    38    21    24    1
    39    22    23   ar
    40    22    43    1
    41    23    44    1
    42    24    45    1
    43    26    46    1
    44    27    47    1
    45    28    48    1
    46    29    49    1
    47    30    50    1
    48     1    31    1
    49     1    27    1
    50     2    32    1
    51     2    28    1
    52     4    34    1
    53     4    30    1
