@<TRIPOS>MOLECULE
*****
 50 53 0 0 0
SMALL
GASTEIGER

@<TRIPOS>ATOM
     1 C         -0.264445   -1.401861   1.653983 C.3        1 UNL1     0.1889
     2 C         -0.450001   -0.986004   0.169876 C.3        1 UNL1     0.1342
     3 C         -1.908841   -0.960667   -0.311381 C.3        1 UNL1     0.1174
     4 C         -2.765545   -2.053146   0.33334 C.3        1 UNL1     0.1456
     5 C         -2.559703   -2.14267   1.856487 C.3        1 UNL1     0.2326
     6 O         -1.182137   -2.366063   2.148505 O.3        1 UNL1     -0.3076
     7 O         -3.117356   -1.028413   2.576748 O.3        1 UNL1     -0.4605
     8 C         -3.580981   -1.301233   3.851168 C.ar        1 UNL1     0.1310
     9 C         -4.377969   -2.394711   4.206721 C.ar        1 UNL1     0.0226
     10 C         -4.783535   -2.594255   5.531712 C.ar        1 UNL1     0.1343
     11 C         -4.381758   -1.717324   6.538393 C.ar        1 UNL1     0.1007
     12 C         -3.619943   -0.59917   6.188888 C.ar        1 UNL1     0.1389
     13 C         -3.214483   -0.397308   4.856115 C.ar        1 UNL1     0.0229
     14 C         -4.711276   -1.926379   7.967332 C.2        1 UNL1     0.1740
     15 C         -4.014309   -1.015061   8.934433 C.3        1 UNL1     0.0520
     16 C         -3.975448   0.384118   8.335481 C.3        1 UNL1     0.1322
     17 O         -3.260283   0.384897   7.080249 O.3        1 UNL1     -0.4828
     18 C         -5.341926   1.071982   8.287455 C.ar        1 UNL1     -0.0067
     19 C         -5.759744   1.699779   7.096022 C.ar        1 UNL1     -0.0516
     20 C         -6.982555   2.378485   7.032357 C.ar        1 UNL1     -0.0198
     21 C         -7.791378   2.442708   8.152851 C.ar        1 UNL1     0.1169
     22 C         -7.42268   1.805966   9.330757 C.ar        1 UNL1     -0.0198
     23 C         -6.208441   1.11152   9.389264 C.ar        1 UNL1     -0.0516
     24 O         -8.95748   3.144666   8.064182 O.3        1 UNL1     -0.5068
     25 O         -5.440375   -2.829964   8.367874 O.2        1 UNL1     -0.2917
     26 O         -5.561147   -3.679736   5.81213 O.3        1 UNL1     -0.5058
     27 O         -0.135576   -0.299769   2.538049 O.3        1 UNL1     -0.3648
     28 O         0.258321   -1.926024   -0.659188 O.3        1 UNL1     -0.3841
     29 O         -2.470265   0.344659   -0.159524 O.3        1 UNL1     -0.3863
     30 O         -2.429731   -3.328098   -0.256081 O.3        1 UNL1     -0.3829
     31 H         0.702563   -1.912728   1.71715 H        1 UNL1     0.0937
     32 H         0.0   0.0   0.0 H        1 UNL1     0.0671
     33 H         -1.908489   -1.154079   -1.39319 H        1 UNL1     0.0649
     34 H         -3.825027   -1.871251   0.12165 H        1 UNL1     0.0683
     35 H         -3.098445   -3.054539   2.143075 H        1 UNL1     0.1085
     36 H         -4.676902   -3.142544   3.480426 H        1 UNL1     0.0691
     37 H         -2.622659   0.481651   4.609803 H        1 UNL1     0.0691
     38 H         -3.003259   -1.406821   9.088803 H        1 UNL1     0.0385
     39 H         -4.541077   -1.04   9.894471 H        1 UNL1     0.0385
     40 H         -3.361061   1.004557   9.001892 H        1 UNL1     0.0789
     41 H         -5.138705   1.671511   6.205425 H        1 UNL1     0.0623
     42 H         -7.288135   2.868704   6.111315 H        1 UNL1     0.0654
     43 H         -8.05548   1.837197   10.209676 H        1 UNL1     0.0654
     44 H         -5.956937   0.616806   10.322457 H        1 UNL1     0.0623
     45 H         -8.744107   4.068818   7.856502 H        1 UNL1     0.2921
     46 H         -5.130186   -4.218966   6.493977 H        1 UNL1     0.2922
     47 H         0.591487   0.272596   2.255846 H        1 UNL1     0.2126
     48 H         1.202825   -1.85159   -0.422322 H        1 UNL1     0.2101
     49 H         -2.063494   0.954845   -0.795138 H        1 UNL1     0.2100
     50 H         -2.70157   -3.30623   -1.197005 H        1 UNL1     0.2102
@<TRIPOS>BOND
     1     1     2    1
     2     1     6    1
     3     2     3    1
     4     3     4    1
     5     3    29    1
     6     3    33    1
     7     4     5    1
     8     5     6    1
     9     5     7    1
    10     5    35    1
    11     7     8    1
    12     8     9   ar
    13     8    13   ar
    14     9    10   ar
    15     9    36    1
    16    10    11   ar
    17    10    26    1
    18    11    12   ar
    19    11    14    1
    20    12    13   ar
    21    12    17    1
    22    13    37    1
    23    14    15    1
    24    14    25    2
    25    15    16    1
    26    15    38    1
    27    15    39    1
    28    16    17    1
    29    16    18    1
    30    16    40    1
    31    18    19   ar
    32    18    23   ar
    33    19    20   ar
    34    19    41    1
    35    20    21   ar
    36    20    42    1
    37    21    22   ar
    38    21    24    1
    39    22    23   ar
    40    22    43    1
    41    23    44    1
    42    24    45    1
    43    26    46    1
    44    27    47    1
    45    28    48    1
    46    29    49    1
    47    30    50    1
    48     1    31    1
    49     1    27    1
    50     2    32    1
    51     2    28    1
    52     4    34    1
    53     4    30    1
