@<TRIPOS>MOLECULE
*****
 50 53 0 0 0
SMALL
GASTEIGER

@<TRIPOS>ATOM
     1 C         0.068475   -1.598701   -1.486698 C.3        1 UNL1     0.1889
     2 C         0.256359   -1.065918   -0.040744 C.3        1 UNL1     0.1342
     3 C         1.665643   -1.264842   0.537885 C.3        1 UNL1     0.1174
     4 C         2.323539   -2.563536   0.064931 C.3        1 UNL1     0.1456
     5 C         2.18163   -2.7783   -1.452996 C.3        1 UNL1     0.2326
     6 O         0.80359   -2.76736   -1.818719 O.3        1 UNL1     -0.3076
     7 O         2.982337   -1.875252   -2.23702 O.3        1 UNL1     -0.4605
     8 C         4.325262   -1.816368   -1.910501 C.ar        1 UNL1     0.1310
     9 C         4.972975   -0.715337   -1.339978 C.ar        1 UNL1     0.0226
     10 C         6.33728   -0.759386   -1.029118 C.ar        1 UNL1     0.1343
     11 C         7.082444   -1.915016   -1.259528 C.ar        1 UNL1     0.1007
     12 C         6.456091   -3.006741   -1.866655 C.ar        1 UNL1     0.1389
     13 C         5.084888   -2.961277   -2.18156 C.ar        1 UNL1     0.0229
     14 C         8.506548   -2.04529   -0.87338 C.2        1 UNL1     0.1740
     15 C         9.087242   -3.424009   -0.989476 C.3        1 UNL1     0.0520
     16 C         8.559752   -4.062976   -2.266751 C.3        1 UNL1     0.1322
     17 O         7.11827   -4.154169   -2.237054 O.3        1 UNL1     -0.4828
     18 C         9.130085   -3.445263   -3.545765 C.ar        1 UNL1     -0.0067
     19 C         9.909684   -2.273409   -3.460931 C.ar        1 UNL1     -0.0516
     20 C         10.406754   -1.656228   -4.615041 C.ar        1 UNL1     -0.0198
     21 C         10.125698   -2.195731   -5.857527 C.ar        1 UNL1     0.1169
     22 C         9.388906   -3.367486   -5.971401 C.ar        1 UNL1     -0.0198
     23 C         8.907251   -3.995122   -4.816353 C.ar        1 UNL1     -0.0516
     24 O         10.594877   -1.545985   -6.961204 O.3        1 UNL1     -0.5068
     25 O         9.168613   -1.120624   -0.409539 O.2        1 UNL1     -0.2917
     26 O         6.909154   0.348742   -0.475405 O.3        1 UNL1     -0.5058
     27 O         0.202757   -0.595431   -2.480783 O.3        1 UNL1     -0.3648
     28 O         -0.663324   -1.75853   0.823652 O.3        1 UNL1     -0.3841
     29 O         2.478625   -0.113971   0.299788 O.3        1 UNL1     -0.3863
     30 O         1.715274   -3.679687   0.750431 O.3        1 UNL1     -0.3829
     31 H         -0.975342   -1.921019   -1.568157 H        1 UNL1     0.0937
     32 H         0.0   0.0   0.0 H        1 UNL1     0.0671
     33 H         1.572615   -1.335339   1.630632 H        1 UNL1     0.0649
     34 H         3.386013   -2.563518   0.332419 H        1 UNL1     0.0683
     35 H         2.545322   -3.801427   -1.610535 H        1 UNL1     0.1085
     36 H         4.437066   0.192363   -1.085022 H        1 UNL1     0.0691
     37 H         4.621142   -3.824138   -2.654744 H        1 UNL1     0.0691
     38 H         8.774311   -3.990642   -0.106002 H        1 UNL1     0.0385
     39 H         10.180376   -3.354872   -0.981969 H        1 UNL1     0.0385
     40 H         8.900868   -5.107075   -2.271152 H        1 UNL1     0.0789
     41 H         10.13662   -1.825188   -2.497993 H        1 UNL1     0.0623
     42 H         10.996704   -0.746329   -4.537233 H        1 UNL1     0.0654
     43 H         9.175654   -3.806852   -6.938558 H        1 UNL1     0.0654
     44 H         8.344108   -4.914883   -4.941872 H        1 UNL1     0.0623
     45 H         10.026875   -1.772886   -7.715264 H        1 UNL1     0.2921
     46 H         7.766274   0.111047   -0.087772 H        1 UNL1     0.2922
     47 H         -0.643165   -0.451322   -2.927447 H        1 UNL1     0.2126
     48 H         -0.172471   -1.972363   1.640396 H        1 UNL1     0.2101
     49 H         3.415007   -0.342146   0.413455 H        1 UNL1     0.2100
     50 H         2.085972   -3.715328   1.656536 H        1 UNL1     0.2102
@<TRIPOS>BOND
     1     1     2    1
     2     1     6    1
     3     2     3    1
     4     3     4    1
     5     3    29    1
     6     3    33    1
     7     4     5    1
     8     5     6    1
     9     5     7    1
    10     5    35    1
    11     7     8    1
    12     8     9   ar
    13     8    13   ar
    14     9    10   ar
    15     9    36    1
    16    10    11   ar
    17    10    26    1
    18    11    12   ar
    19    11    14    1
    20    12    13   ar
    21    12    17    1
    22    13    37    1
    23    14    15    1
    24    14    25    2
    25    15    16    1
    26    15    38    1
    27    15    39    1
    28    16    17    1
    29    16    18    1
    30    16    40    1
    31    18    19   ar
    32    18    23   ar
    33    19    20   ar
    34    19    41    1
    35    20    21   ar
    36    20    42    1
    37    21    22   ar
    38    21    24    1
    39    22    23   ar
    40    22    43    1
    41    23    44    1
    42    24    45    1
    43    26    46    1
    44    27    47    1
    45    28    48    1
    46    29    49    1
    47    30    50    1
    48     1    31    1
    49     1    27    1
    50     2    32    1
    51     2    28    1
    52     4    34    1
    53     4    30    1
