@<TRIPOS>MOLECULE
*****
 50 53 0 0 0
SMALL
GASTEIGER

@<TRIPOS>ATOM
     1 C         -0.326516   -1.366727   1.672199 C.3        1 UNL1     0.1889
     2 C         -0.462171   -0.979453   0.175016 C.3        1 UNL1     0.1342
     3 C         -1.90488   -0.954248   -0.35264 C.3        1 UNL1     0.1174
     4 C         -2.789287   -2.028   0.286107 C.3        1 UNL1     0.1456
     5 C         -2.632256   -2.088363   1.816487 C.3        1 UNL1     0.2326
     6 O         -1.266222   -2.314838   2.156381 O.3        1 UNL1     -0.3076
     7 O         -3.204383   -0.956305   2.496513 O.3        1 UNL1     -0.4605
     8 C         -3.720134   -1.202935   3.756157 C.ar        1 UNL1     0.1310
     9 C         -4.537281   -2.285366   4.099544 C.ar        1 UNL1     0.0226
     10 C         -4.996594   -2.458104   5.410687 C.ar        1 UNL1     0.1343
     11 C         -4.63   -1.564773   6.416376 C.ar        1 UNL1     0.1007
     12 C         -3.848089   -0.457371   6.077171 C.ar        1 UNL1     0.1389
     13 C         -3.388558   -0.28246   4.758206 C.ar        1 UNL1     0.0229
     14 C         -5.017532   -1.745494   7.834584 C.2        1 UNL1     0.1740
     15 C         -4.354202   -0.820088   8.81191 C.3        1 UNL1     0.0520
     16 C         -4.283001   0.567498   8.189419 C.3        1 UNL1     0.1322
     17 O         -3.518328   0.541156   6.964 O.3        1 UNL1     -0.4828
     18 C         -5.642283   1.261608   8.074152 C.ar        1 UNL1     -0.0067
     19 C         -5.768802   2.405739   7.259799 C.ar        1 UNL1     -0.0516
     20 C         -6.985643   3.092099   7.169404 C.ar        1 UNL1     -0.0198
     21 C         -8.078899   2.649675   7.892507 C.ar        1 UNL1     0.1169
     22 C         -7.994578   1.506715   8.676963 C.ar        1 UNL1     -0.0198
     23 C         -6.782906   0.809499   8.753101 C.ar        1 UNL1     -0.0516
     24 O         -9.236894   3.365552   7.809026 O.3        1 UNL1     -0.5068
     25 O         -5.767491   -2.637593   8.222149 O.2        1 UNL1     -0.2917
     26 O         -5.791334   -3.534038   5.679641 O.3        1 UNL1     -0.5058
     27 O         -0.217737   -0.248026   2.537914 O.3        1 UNL1     -0.3648
     28 O         0.265225   -1.940472   -0.612412 O.3        1 UNL1     -0.3841
     29 O         -2.461475   0.357486   -0.244522 O.3        1 UNL1     -0.3863
     30 O         -2.44416   -3.316653   -0.26702 O.3        1 UNL1     -0.3829
     31 H         0.634342   -1.882517   1.776081 H        1 UNL1     0.0937
     32 H         0.0   0.0   0.0 H        1 UNL1     0.0671
     33 H         -1.871774   -1.169269   -1.429854 H        1 UNL1     0.0649
     34 H         -3.840235   -1.843478   0.037388 H        1 UNL1     0.0683
     35 H         -3.186275   -2.990784   2.103852 H        1 UNL1     0.1085
     36 H         -4.81152   -3.044961   3.375715 H        1 UNL1     0.0691
     37 H         -2.782065   0.588611   4.519682 H        1 UNL1     0.0691
     38 H         -3.352508   -1.214284   9.013765 H        1 UNL1     0.0385
     39 H         -4.918998   -0.824388   9.7504 H        1 UNL1     0.0385
     40 H         -3.691947   1.196932   8.86838 H        1 UNL1     0.0789
     41 H         -4.922961   2.778424   6.68944 H        1 UNL1     0.0623
     42 H         -7.067313   3.979979   6.547302 H        1 UNL1     0.0654
     43 H         -8.84866   1.14284   9.235578 H        1 UNL1     0.0654
     44 H         -6.755823   -0.085429   9.367279 H        1 UNL1     0.0623
     45 H         -9.072461   4.25657   8.157975 H        1 UNL1     0.2921
     46 H         -5.402523   -4.050651   6.403069 H        1 UNL1     0.2922
     47 H         0.511586   0.322465   2.257758 H        1 UNL1     0.2126
     48 H         1.210025   -1.704456   -0.539058 H        1 UNL1     0.2101
     49 H         -2.030741   0.952084   -0.879121 H        1 UNL1     0.2100
     50 H         -2.706747   -3.319773   -1.210816 H        1 UNL1     0.2102
@<TRIPOS>BOND
     1     1     2    1
     2     1     6    1
     3     2     3    1
     4     3     4    1
     5     3    29    1
     6     3    33    1
     7     4     5    1
     8     5     6    1
     9     5     7    1
    10     5    35    1
    11     7     8    1
    12     8     9   ar
    13     8    13   ar
    14     9    10   ar
    15     9    36    1
    16    10    11   ar
    17    10    26    1
    18    11    12   ar
    19    11    14    1
    20    12    13   ar
    21    12    17    1
    22    13    37    1
    23    14    15    1
    24    14    25    2
    25    15    16    1
    26    15    38    1
    27    15    39    1
    28    16    17    1
    29    16    18    1
    30    16    40    1
    31    18    19   ar
    32    18    23   ar
    33    19    20   ar
    34    19    41    1
    35    20    21   ar
    36    20    42    1
    37    21    22   ar
    38    21    24    1
    39    22    23   ar
    40    22    43    1
    41    23    44    1
    42    24    45    1
    43    26    46    1
    44    27    47    1
    45    28    48    1
    46    29    49    1
    47    30    50    1
    48     1    31    1
    49     1    27    1
    50     2    32    1
    51     2    28    1
    52     4    34    1
    53     4    30    1
