@<TRIPOS>MOLECULE
*****
 50 53 0 0 0
SMALL
GASTEIGER

@<TRIPOS>ATOM
     1 C         -0.33234   -1.328604   1.701519 C.3        1 UNL1     0.1889
     2 C         -0.462386   -0.975486   0.195419 C.3        1 UNL1     0.1342
     3 C         -1.903055   -0.963064   -0.338231 C.3        1 UNL1     0.1174
     4 C         -2.789423   -2.022535   0.321309 C.3        1 UNL1     0.1456
     5 C         -2.638283   -2.048062   1.853258 C.3        1 UNL1     0.2326
     6 O         -1.273467   -2.266005   2.203469 O.3        1 UNL1     -0.3076
     7 O         -3.213565   -0.901179   2.505203 O.3        1 UNL1     -0.4605
     8 C         -3.723884   -1.116938   3.772701 C.ar        1 UNL1     0.1310
     9 C         -4.540335   -2.190058   4.145691 C.ar        1 UNL1     0.0226
     10 C         -4.993929   -2.330755   5.462642 C.ar        1 UNL1     0.1343
     11 C         -4.622156   -1.413785   6.44488 C.ar        1 UNL1     0.1007
     12 C         -3.840903   -0.315569   6.075624 C.ar        1 UNL1     0.1389
     13 C         -3.387123   -0.172888   4.750801 C.ar        1 UNL1     0.0229
     14 C         -5.003498   -1.559947   7.868737 C.2        1 UNL1     0.1740
     15 C         -4.335093   -0.611857   8.820529 C.3        1 UNL1     0.0520
     16 C         -4.265587   0.760268   8.16448 C.3        1 UNL1     0.1322
     17 O         -3.50641   0.703738   6.936667 O.3        1 UNL1     -0.4828
     18 C         -5.624829   1.452605   8.038561 C.ar        1 UNL1     -0.0067
     19 C         -6.002584   2.017293   6.802987 C.ar        1 UNL1     -0.0516
     20 C         -7.217833   2.698786   6.666244 C.ar        1 UNL1     -0.0198
     21 C         -8.05884   2.828514   7.75698 C.ar        1 UNL1     0.1169
     22 C         -7.729851   2.254451   8.978069 C.ar        1 UNL1     -0.0198
     23 C         -6.523136   1.557013   9.11026 C.ar        1 UNL1     -0.0516
     24 O         -9.216494   3.53153   7.595715 O.3        1 UNL1     -0.5068
     25 O         -5.752416   -2.441786   8.281008 O.2        1 UNL1     -0.2917
     26 O         -5.788301   -3.399194   5.760966 O.3        1 UNL1     -0.5058
     27 O         -0.227433   -0.190482   2.542031 O.3        1 UNL1     -0.3648
     28 O         0.2685   -1.953724   -0.567183 O.3        1 UNL1     -0.3841
     29 O         -2.460678   0.350476   -0.262062 O.3        1 UNL1     -0.3863
     30 O         -2.441555   -3.323218   -0.201091 O.3        1 UNL1     -0.3829
     31 H         0.62835   -1.841369   1.820786 H        1 UNL1     0.0937
     32 H         0.0   0.0   0.0 H        1 UNL1     0.0671
     33 H         -1.865682   -1.20246   -1.410151 H        1 UNL1     0.0649
     34 H         -3.839487   -1.84429   0.064415 H        1 UNL1     0.0683
     35 H         -3.192986   -2.944036   2.158895 H        1 UNL1     0.1085
     36 H         -4.818392   -2.966625   3.441597 H        1 UNL1     0.0691
     37 H         -2.781021   0.691647   4.48867 H        1 UNL1     0.0691
     38 H         -3.332816   -1.001965   9.027372 H        1 UNL1     0.0385
     39 H         -4.8957   -0.593048   9.76135 H        1 UNL1     0.0385
     40 H         -3.67102   1.405349   8.825448 H        1 UNL1     0.0789
     41 H         -5.355782   1.937056   5.93416 H        1 UNL1     0.0623
     42 H         -7.492414   3.140108   5.711334 H        1 UNL1     0.0654
     43 H         -8.388041   2.337083   9.83473 H        1 UNL1     0.0654
     44 H         -6.302999   1.112183   10.075926 H        1 UNL1     0.0623
     45 H         -8.990347   4.439532   7.336665 H        1 UNL1     0.2921
     46 H         -5.384728   -3.911866   6.479094 H        1 UNL1     0.2922
     47 H         0.515563   0.363385   2.264457 H        1 UNL1     0.2126
     48 H         1.201324   -1.88782   -0.285709 H        1 UNL1     0.2101
     49 H         -2.021687   0.932984   -0.902191 H        1 UNL1     0.2100
     50 H         -2.674515   -3.338168   -1.152521 H        1 UNL1     0.2102
@<TRIPOS>BOND
     1     1     2    1
     2     1     6    1
     3     2     3    1
     4     3     4    1
     5     3    29    1
     6     3    33    1
     7     4     5    1
     8     5     6    1
     9     5     7    1
    10     5    35    1
    11     7     8    1
    12     8     9   ar
    13     8    13   ar
    14     9    10   ar
    15     9    36    1
    16    10    11   ar
    17    10    26    1
    18    11    12   ar
    19    11    14    1
    20    12    13   ar
    21    12    17    1
    22    13    37    1
    23    14    15    1
    24    14    25    2
    25    15    16    1
    26    15    38    1
    27    15    39    1
    28    16    17    1
    29    16    18    1
    30    16    40    1
    31    18    19   ar
    32    18    23   ar
    33    19    20   ar
    34    19    41    1
    35    20    21   ar
    36    20    42    1
    37    21    22   ar
    38    21    24    1
    39    22    23   ar
    40    22    43    1
    41    23    44    1
    42    24    45    1
    43    26    46    1
    44    27    47    1
    45    28    48    1
    46    29    49    1
    47    30    50    1
    48     1    31    1
    49     1    27    1
    50     2    32    1
    51     2    28    1
    52     4    34    1
    53     4    30    1
