@<TRIPOS>MOLECULE
*****
 50 53 0 0 0
SMALL
GASTEIGER

@<TRIPOS>ATOM
     1 C         -1.026391   -1.472813   1.244245 C.3        1 UNL1     0.1889
     2 C         -0.758935   -0.782981   -0.120503 C.3        1 UNL1     0.1342
     3 C         -2.003176   -0.176462   -0.787186 C.3        1 UNL1     0.1174
     4 C         -3.271615   -0.994311   -0.531643 C.3        1 UNL1     0.1456
     5 C         -3.42711   -1.395977   0.946481 C.3        1 UNL1     0.2326
     6 O         -2.280143   -2.1266   1.37488 O.3        1 UNL1     -0.3076
     7 O         -3.748918   -0.29055   1.810072 O.3        1 UNL1     -0.4605
     8 C         -4.539499   -0.587381   2.9057 C.ar        1 UNL1     0.1310
     9 C         -5.843581   -1.091085   2.851351 C.ar        1 UNL1     0.0226
     10 C         -6.558373   -1.376843   4.020674 C.ar        1 UNL1     0.1343
     11 C         -5.977129   -1.188059   5.273813 C.ar        1 UNL1     0.1007
     12 C         -4.69051   -0.646932   5.341474 C.ar        1 UNL1     0.1389
     13 C         -3.972979   -0.357202   4.165618 C.ar        1 UNL1     0.0229
     14 C         -6.655569   -1.552003   6.539285 C.2        1 UNL1     0.1740
     15 C         -5.803981   -1.491411   7.773253 C.3        1 UNL1     0.0520
     16 C         -4.916808   -0.257186   7.686253 C.3        1 UNL1     0.1322
     17 O         -4.064211   -0.319585   6.521669 O.3        1 UNL1     -0.4828
     18 C         -5.677916   1.061197   7.845327 C.ar        1 UNL1     -0.0067
     19 C         -4.956742   2.265887   7.975109 C.ar        1 UNL1     -0.0516
     20 C         -5.620531   3.483063   8.169605 C.ar        1 UNL1     -0.0198
     21 C         -7.001757   3.507804   8.243301 C.ar        1 UNL1     0.1169
     22 C         -7.741082   2.342736   8.085653 C.ar        1 UNL1     -0.0198
     23 C         -7.078336   1.128044   7.872703 C.ar        1 UNL1     -0.0516
     24 O         -7.611675   4.706287   8.471418 O.3        1 UNL1     -0.5068
     25 O         -7.813674   -1.957427   6.593213 O.2        1 UNL1     -0.2917
     26 O         -7.826651   -1.864905   3.898812 O.3        1 UNL1     -0.5058
     27 O         -0.749634   -0.642841   2.361088 O.3        1 UNL1     -0.3648
     28 O         -0.22056   -1.761856   -1.028612 O.3        1 UNL1     -0.3841
     29 O         -2.150275   1.19926   -0.429579 O.3        1 UNL1     -0.3863
     30 O         -3.232772   -2.192732   -1.336607 O.3        1 UNL1     -0.3829
     31 H         -0.301517   -2.289771   1.329196 H        1 UNL1     0.0937
     32 H         0.0   0.0   0.0 H        1 UNL1     0.0671
     33 H         -1.836631   -0.179362   -1.873452 H        1 UNL1     0.0649
     34 H         -4.153311   -0.425171   -0.846433 H        1 UNL1     0.0683
     35 H         -4.269727   -2.098728   0.942394 H        1 UNL1     0.1085
     36 H         -6.33056   -1.312273   1.907927 H        1 UNL1     0.0691
     37 H         -2.973306   0.064442   4.245383 H        1 UNL1     0.0691
     38 H         -5.204321   -2.407265   7.807104 H        1 UNL1     0.0385
     39 H         -6.452066   -1.474079   8.656125 H        1 UNL1     0.0385
     40 H         -4.222991   -0.296643   8.536889 H        1 UNL1     0.0789
     41 H         -3.871578   2.271801   7.92998 H        1 UNL1     0.0623
     42 H         -5.052702   4.403584   8.280167 H        1 UNL1     0.0654
     43 H         -8.823731   2.352938   8.12661 H        1 UNL1     0.0654
     44 H         -7.687929   0.238963   7.743179 H        1 UNL1     0.0623
     45 H         -6.960791   5.312448   8.860821 H        1 UNL1     0.2921
     46 H         -7.94869   -2.605653   4.513474 H        1 UNL1     0.2922
     47 H         -1.532497   -0.125225   2.595736 H        1 UNL1     0.2126
     48 H         -0.65748   -1.614818   -1.88955 H        1 UNL1     0.2101
     49 H         -2.791172   1.285435   0.294036 H        1 UNL1     0.2100
     50 H         -3.116334   -2.956706   -0.734529 H        1 UNL1     0.2102
@<TRIPOS>BOND
     1     1     2    1
     2     1     6    1
     3     2     3    1
     4     3     4    1
     5     3    29    1
     6     3    33    1
     7     4     5    1
     8     5     6    1
     9     5     7    1
    10     5    35    1
    11     7     8    1
    12     8     9   ar
    13     8    13   ar
    14     9    10   ar
    15     9    36    1
    16    10    11   ar
    17    10    26    1
    18    11    12   ar
    19    11    14    1
    20    12    13   ar
    21    12    17    1
    22    13    37    1
    23    14    15    1
    24    14    25    2
    25    15    16    1
    26    15    38    1
    27    15    39    1
    28    16    17    1
    29    16    18    1
    30    16    40    1
    31    18    19   ar
    32    18    23   ar
    33    19    20   ar
    34    19    41    1
    35    20    21   ar
    36    20    42    1
    37    21    22   ar
    38    21    24    1
    39    22    23   ar
    40    22    43    1
    41    23    44    1
    42    24    45    1
    43    26    46    1
    44    27    47    1
    45    28    48    1
    46    29    49    1
    47    30    50    1
    48     1    31    1
    49     1    27    1
    50     2    32    1
    51     2    28    1
    52     4    34    1
    53     4    30    1
