@<TRIPOS>MOLECULE
*****
 50 53 0 0 0
SMALL
GASTEIGER

@<TRIPOS>ATOM
     1 C         -0.363726   -1.395133   1.640766 C.3        1 UNL1     0.1889
     2 C         -0.48427   -0.972619   0.151843 C.3        1 UNL1     0.1342
     3 C         -1.923743   -0.904276   -0.380806 C.3        1 UNL1     0.1174
     4 C         -2.834251   -1.971915   0.230943 C.3        1 UNL1     0.1456
     5 C         -2.685326   -2.068864   1.760252 C.3        1 UNL1     0.2326
     6 O         -1.326088   -2.332627   2.100504 O.3        1 UNL1     -0.3076
     7 O         -3.235523   -0.939504   2.462497 O.3        1 UNL1     -0.4605
     8 C         -3.762095   -1.201974   3.714439 C.ar        1 UNL1     0.1310
     9 C         -4.607037   -2.271393   4.030217 C.ar        1 UNL1     0.0226
     10 C         -5.075566   -2.462586   5.335525 C.ar        1 UNL1     0.1343
     11 C         -4.690948   -1.601796   6.362632 C.ar        1 UNL1     0.1007
     12 C         -3.880631   -0.506642   6.05149 C.ar        1 UNL1     0.1389
     13 C         -3.4118   -0.313104   4.738413 C.ar        1 UNL1     0.0229
     14 C         -5.088332   -1.805188   7.775032 C.2        1 UNL1     0.1740
     15 C         -4.406167   -0.919041   8.775503 C.3        1 UNL1     0.0520
     16 C         -4.298322   0.480203   8.185212 C.3        1 UNL1     0.1322
     17 O         -3.529776   0.462911   6.962058 O.3        1 UNL1     -0.4828
     18 C         -5.639601   1.21021   8.081366 C.ar        1 UNL1     -0.0067
     19 C         -5.65942   2.576124   7.731935 C.ar        1 UNL1     -0.0516
     20 C         -6.865052   3.285418   7.67434 C.ar        1 UNL1     -0.0198
     21 C         -8.054195   2.643478   7.970448 C.ar        1 UNL1     0.1169
     22 C         -8.070381   1.290888   8.285209 C.ar        1 UNL1     -0.0198
     23 C         -6.866781   0.576865   8.324879 C.ar        1 UNL1     -0.0516
     24 O         -9.204459   3.375882   7.940822 O.3        1 UNL1     -0.5068
     25 O         -5.861581   -2.687056   8.13956 O.2        1 UNL1     -0.2917
     26 O         -5.89766   -3.524369   5.577113 O.3        1 UNL1     -0.5058
     27 O         -0.234297   -0.298116   2.53104 O.3        1 UNL1     -0.3648
     28 O         0.225375   -1.932108   -0.653446 O.3        1 UNL1     -0.3841
     29 O         -2.451957   0.416726   -0.246358 O.3        1 UNL1     -0.3863
     30 O         -2.514985   -3.255556   -0.348734 O.3        1 UNL1     -0.3829
     31 H         0.585142   -1.934051   1.737176 H        1 UNL1     0.0937
     32 H         0.0   0.0   0.0 H        1 UNL1     0.0671
     33 H         -1.890604   -1.09658   -1.462305 H        1 UNL1     0.0649
     34 H         -3.879801   -1.758988   -0.017831 H        1 UNL1     0.0683
     35 H         -3.260229   -2.964903   2.025732 H        1 UNL1     0.1085
     36 H         -4.897125   -3.007245   3.288266 H        1 UNL1     0.0691
     37 H         -2.78307   0.547899   4.521927 H        1 UNL1     0.0691
     38 H         -3.4153   -1.342426   8.971599 H        1 UNL1     0.0385
     39 H         -4.974541   -0.930774   9.711768 H        1 UNL1     0.0385
     40 H         -3.694557   1.079146   8.880377 H        1 UNL1     0.0789
     41 H         -4.738588   3.105037   7.503969 H        1 UNL1     0.0623
     42 H         -6.866023   4.341292   7.415227 H        1 UNL1     0.0654
     43 H         -8.997498   0.774717   8.504144 H        1 UNL1     0.0654
     44 H         -6.917693   -0.48098   8.564081 H        1 UNL1     0.0623
     45 H         -9.766473   3.035462   7.226 H        1 UNL1     0.2921
     46 H         -5.624903   -3.964584   6.397617 H        1 UNL1     0.2922
     47 H         0.509846   0.261012   2.267439 H        1 UNL1     0.2126
     48 H         1.177215   -1.776509   -0.500076 H        1 UNL1     0.2101
     49 H         -2.999608   0.473407   0.552804 H        1 UNL1     0.2100
     50 H         -2.773415   -3.23245   -1.2934 H        1 UNL1     0.2102
@<TRIPOS>BOND
     1     1     2    1
     2     1     6    1
     3     2     3    1
     4     3     4    1
     5     3    29    1
     6     3    33    1
     7     4     5    1
     8     5     6    1
     9     5     7    1
    10     5    35    1
    11     7     8    1
    12     8     9   ar
    13     8    13   ar
    14     9    10   ar
    15     9    36    1
    16    10    11   ar
    17    10    26    1
    18    11    12   ar
    19    11    14    1
    20    12    13   ar
    21    12    17    1
    22    13    37    1
    23    14    15    1
    24    14    25    2
    25    15    16    1
    26    15    38    1
    27    15    39    1
    28    16    17    1
    29    16    18    1
    30    16    40    1
    31    18    19   ar
    32    18    23   ar
    33    19    20   ar
    34    19    41    1
    35    20    21   ar
    36    20    42    1
    37    21    22   ar
    38    21    24    1
    39    22    23   ar
    40    22    43    1
    41    23    44    1
    42    24    45    1
    43    26    46    1
    44    27    47    1
    45    28    48    1
    46    29    49    1
    47    30    50    1
    48     1    31    1
    49     1    27    1
    50     2    32    1
    51     2    28    1
    52     4    34    1
    53     4    30    1
