@<TRIPOS>MOLECULE
*****
 50 53 0 0 0
SMALL
GASTEIGER

@<TRIPOS>ATOM
     1 C         0.229872   -0.864404   1.992679 C.3        1 UNL1     0.1889
     2 C         -0.087078   -0.983771   0.477676 C.3        1 UNL1     0.1342
     3 C         -1.467547   -1.57653   0.156109 C.3        1 UNL1     0.1174
     4 C         -1.900463   -2.65001   1.157779 C.3        1 UNL1     0.1456
     5 C         -1.675593   -2.219161   2.618658 C.3        1 UNL1     0.2326
     6 O         -0.304167   -1.886197   2.821616 O.3        1 UNL1     -0.3076
     7 O         -2.579092   -1.188587   3.057893 O.3        1 UNL1     -0.4605
     8 C         -2.012051   0.047751   3.309805 C.ar        1 UNL1     0.1310
     9 C         -0.970581   0.293097   4.211164 C.ar        1 UNL1     0.0226
     10 C         -0.45141   1.581714   4.383874 C.ar        1 UNL1     0.1343
     11 C         -0.945585   2.653201   3.641212 C.ar        1 UNL1     0.1007
     12 C         -2.013136   2.428052   2.768041 C.ar        1 UNL1     0.1389
     13 C         -2.536754   1.132742   2.596503 C.ar        1 UNL1     0.0229
     14 C         -0.378097   4.019043   3.722375 C.2        1 UNL1     0.1740
     15 C         -0.879558   4.992499   2.696476 C.3        1 UNL1     0.0520
     16 C         -2.375559   4.774618   2.516297 C.3        1 UNL1     0.1322
     17 O         -2.647397   3.428301   2.068411 O.3        1 UNL1     -0.4828
     18 C         -3.212742   5.225323   3.715762 C.ar        1 UNL1     -0.0067
     19 C         -4.618206   5.256776   3.606706 C.ar        1 UNL1     -0.0516
     20 C         -5.41112   5.708726   4.668304 C.ar        1 UNL1     -0.0198
     21 C         -4.811623   6.137852   5.838894 C.ar        1 UNL1     0.1169
     22 C         -3.431815   6.087284   5.988597 C.ar        1 UNL1     -0.0198
     23 C         -2.639712   5.61802   4.933884 C.ar        1 UNL1     -0.0516
     24 O         -5.613971   6.606855   6.83723 O.3        1 UNL1     -0.5068
     25 O         0.504356   4.338566   4.514629 O.2        1 UNL1     -0.2917
     26 O         0.563322   1.754004   5.279542 O.3        1 UNL1     -0.5058
     27 O         -0.023938   0.42662   2.523362 O.3        1 UNL1     -0.3648
     28 O         0.898659   -1.840311   -0.128434 O.3        1 UNL1     -0.3841
     29 O         -2.439999   -0.541157   -0.000328 O.3        1 UNL1     -0.3863
     30 O         -1.150715   -3.859192   0.909892 O.3        1 UNL1     -0.3829
     31 H         1.31311   -0.990458   2.096535 H        1 UNL1     0.0937
     32 H         0.0   0.0   0.0 H        1 UNL1     0.0671
     33 H         -1.401923   -2.065934   -0.825674 H        1 UNL1     0.0649
     34 H         -2.958651   -2.893259   1.01126 H        1 UNL1     0.0683
     35 H         -1.871295   -3.131117   3.196513 H        1 UNL1     0.1085
     36 H         -0.505798   -0.506899   4.77694 H        1 UNL1     0.0691
     37 H         -3.368653   0.984089   1.911419 H        1 UNL1     0.0691
     38 H         -0.337351   4.800141   1.764523 H        1 UNL1     0.0385
     39 H         -0.646011   6.011291   3.024041 H        1 UNL1     0.0385
     40 H         -2.697262   5.411897   1.68149 H        1 UNL1     0.0789
     41 H         -5.112414   4.933877   2.695034 H        1 UNL1     0.0623
     42 H         -6.493219   5.739408   4.567646 H        1 UNL1     0.0654
     43 H         -2.952884   6.406754   6.906461 H        1 UNL1     0.0654
     44 H         -1.565745   5.582261   5.089317 H        1 UNL1     0.0623
     45 H         -6.467822   6.860541   6.450838 H        1 UNL1     0.2921
     46 H         1.247123   2.320614   4.888671 H        1 UNL1     0.2922
     47 H         -0.941172   0.490605   2.824106 H        1 UNL1     0.2126
     48 H         0.419308   -2.423982   -0.747533 H        1 UNL1     0.2101
     49 H         -2.368388   0.092162   0.7315 H        1 UNL1     0.2100
     50 H         -0.418554   -3.898515   1.55959 H        1 UNL1     0.2102
@<TRIPOS>BOND
     1     1     2    1
     2     1     6    1
     3     2     3    1
     4     3     4    1
     5     3    29    1
     6     3    33    1
     7     4     5    1
     8     5     6    1
     9     5     7    1
    10     5    35    1
    11     7     8    1
    12     8     9   ar
    13     8    13   ar
    14     9    10   ar
    15     9    36    1
    16    10    11   ar
    17    10    26    1
    18    11    12   ar
    19    11    14    1
    20    12    13   ar
    21    12    17    1
    22    13    37    1
    23    14    15    1
    24    14    25    2
    25    15    16    1
    26    15    38    1
    27    15    39    1
    28    16    17    1
    29    16    18    1
    30    16    40    1
    31    18    19   ar
    32    18    23   ar
    33    19    20   ar
    34    19    41    1
    35    20    21   ar
    36    20    42    1
    37    21    22   ar
    38    21    24    1
    39    22    23   ar
    40    22    43    1
    41    23    44    1
    42    24    45    1
    43    26    46    1
    44    27    47    1
    45    28    48    1
    46    29    49    1
    47    30    50    1
    48     1    31    1
    49     1    27    1
    50     2    32    1
    51     2    28    1
    52     4    34    1
    53     4    30    1
