@<TRIPOS>MOLECULE
*****
 50 53 0 0 0
SMALL
GASTEIGER

@<TRIPOS>ATOM
     1 C         -0.373137   -1.395831   1.638056 C.3        1 UNL1     0.1889
     2 C         -0.488354   -0.970957   0.149383 C.3        1 UNL1     0.1342
     3 C         -1.926221   -0.896438   -0.38676 C.3        1 UNL1     0.1174
     4 C         -2.842319   -1.961376   0.221344 C.3        1 UNL1     0.1456
     5 C         -2.697581   -2.060848   1.750893 C.3        1 UNL1     0.2326
     6 O         -1.340212   -2.330232   2.094188 O.3        1 UNL1     -0.3076
     7 O         -3.245217   -0.930294   2.45322 O.3        1 UNL1     -0.4605
     8 C         -3.775909   -1.192353   3.703507 C.ar        1 UNL1     0.1310
     9 C         -4.620147   -2.262903   4.017333 C.ar        1 UNL1     0.0226
     10 C         -5.093114   -2.453527   5.321122 C.ar        1 UNL1     0.1343
     11 C         -4.713746   -1.590984   6.348712 C.ar        1 UNL1     0.1007
     12 C         -3.904195   -0.494756   6.039368 C.ar        1 UNL1     0.1389
     13 C         -3.4309   -0.301794   4.727808 C.ar        1 UNL1     0.0229
     14 C         -5.11594   -1.793571   7.759865 C.2        1 UNL1     0.1740
     15 C         -4.438974   -0.905183   8.761879 C.3        1 UNL1     0.0520
     16 C         -4.331394   0.49362   8.170497 C.3        1 UNL1     0.1322
     17 O         -3.558351   0.476368   6.950179 O.3        1 UNL1     -0.4828
     18 C         -5.673547   1.221188   8.060972 C.ar        1 UNL1     -0.0067
     19 C         -5.695   2.584315   7.700919 C.ar        1 UNL1     -0.0516
     20 C         -6.901481   3.291693   7.637805 C.ar        1 UNL1     -0.0198
     21 C         -8.089856   2.650653   7.938901 C.ar        1 UNL1     0.1169
     22 C         -8.104423   1.300535   8.264182 C.ar        1 UNL1     -0.0198
     23 C         -6.899968   0.588286   8.309408 C.ar        1 UNL1     -0.0516
     24 O         -9.240998   3.381424   7.903576 O.3        1 UNL1     -0.5068
     25 O         -5.888988   -2.676393   8.122503 O.2        1 UNL1     -0.2917
     26 O         -5.914246   -3.516479   5.560834 O.3        1 UNL1     -0.5058
     27 O         -0.241747   -0.300455   2.530063 O.3        1 UNL1     -0.3648
     28 O         0.219634   -1.932117   -0.655371 O.3        1 UNL1     -0.3841
     29 O         -2.449727   0.426397   -0.251927 O.3        1 UNL1     -0.3863
     30 O         -2.526505   -3.245484   -0.35919 O.3        1 UNL1     -0.3829
     31 H         0.573425   -1.938491   1.736135 H        1 UNL1     0.0937
     32 H         0.0   0.0   0.0 H        1 UNL1     0.0671
     33 H         -1.891118   -1.087484   -1.46842 H        1 UNL1     0.0649
     34 H         -3.886425   -1.744141   -0.029759 H        1 UNL1     0.0683
     35 H         -3.276558   -2.955024   2.013786 H        1 UNL1     0.1085
     36 H         -4.906244   -3.000042   3.27511 H        1 UNL1     0.0691
     37 H         -2.802875   0.56007   4.512705 H        1 UNL1     0.0691
     38 H         -3.448098   -1.32664   8.962046 H        1 UNL1     0.0385
     39 H         -5.010747   -0.916912   9.696073 H        1 UNL1     0.0385
     40 H         -3.731213   1.094346   8.867226 H        1 UNL1     0.0789
     41 H         -4.774801   3.112542   7.468842 H        1 UNL1     0.0623
     42 H         -6.903716   4.345517   7.37048 H        1 UNL1     0.0654
     43 H         -9.030923   0.784973   8.487128 H        1 UNL1     0.0654
     44 H         -6.949614   -0.467724   8.556838 H        1 UNL1     0.0623
     45 H         -9.198331   4.054816   8.601745 H        1 UNL1     0.2921
     46 H         -5.542787   -4.057536   6.275458 H        1 UNL1     0.2922
     47 H         0.503908   0.2573   2.267829 H        1 UNL1     0.2126
     48 H         1.171675   -1.780349   -0.499431 H        1 UNL1     0.2101
     49 H         -2.133024   0.982591   -0.981407 H        1 UNL1     0.2100
     50 H         -2.782487   -3.220183   -1.304465 H        1 UNL1     0.2102
@<TRIPOS>BOND
     1     1     2    1
     2     1     6    1
     3     2     3    1
     4     3     4    1
     5     3    29    1
     6     3    33    1
     7     4     5    1
     8     5     6    1
     9     5     7    1
    10     5    35    1
    11     7     8    1
    12     8     9   ar
    13     8    13   ar
    14     9    10   ar
    15     9    36    1
    16    10    11   ar
    17    10    26    1
    18    11    12   ar
    19    11    14    1
    20    12    13   ar
    21    12    17    1
    22    13    37    1
    23    14    15    1
    24    14    25    2
    25    15    16    1
    26    15    38    1
    27    15    39    1
    28    16    17    1
    29    16    18    1
    30    16    40    1
    31    18    19   ar
    32    18    23   ar
    33    19    20   ar
    34    19    41    1
    35    20    21   ar
    36    20    42    1
    37    21    22   ar
    38    21    24    1
    39    22    23   ar
    40    22    43    1
    41    23    44    1
    42    24    45    1
    43    26    46    1
    44    27    47    1
    45    28    48    1
    46    29    49    1
    47    30    50    1
    48     1    31    1
    49     1    27    1
    50     2    32    1
    51     2    28    1
    52     4    34    1
    53     4    30    1
