@<TRIPOS>MOLECULE
*****
 50 53 0 0 0
SMALL
GASTEIGER

@<TRIPOS>ATOM
     1 C         1.897224   0.974685   0.470464 C.3        1 UNL1     0.1889
     2 C         0.84786   -0.150009   0.679847 C.3        1 UNL1     0.1342
     3 C         0.321114   -0.275981   2.117601 C.3        1 UNL1     0.1174
     4 C         1.387275   0.038541   3.169976 C.3        1 UNL1     0.1456
     5 C         2.171585   1.324088   2.849678 C.3        1 UNL1     0.2326
     6 O         2.773075   1.218245   1.561316 O.3        1 UNL1     -0.3076
     7 O         1.395906   2.525038   3.015095 O.3        1 UNL1     -0.4605
     8 C         1.557044   3.490262   2.037391 C.ar        1 UNL1     0.1310
     9 C         2.754766   4.148389   1.738005 C.ar        1 UNL1     0.0226
     10 C         2.820622   5.101563   0.714762 C.ar        1 UNL1     0.1343
     11 C         1.694747   5.402726   -0.050448 C.ar        1 UNL1     0.1007
     12 C         0.483371   4.782078   0.266013 C.ar        1 UNL1     0.1389
     13 C         0.416801   3.825641   1.296658 C.ar        1 UNL1     0.0229
     14 C         1.727653   6.339426   -1.197472 C.2        1 UNL1     0.1740
     15 C         0.488257   6.37485   -2.042572 C.3        1 UNL1     0.0520
     16 C         -0.723593   6.302879   -1.123771 C.3        1 UNL1     0.1322
     17 O         -0.709045   5.082695   -0.350461 O.3        1 UNL1     -0.4828
     18 C         -0.948729   7.573216   -0.300192 C.ar        1 UNL1     -0.0067
     19 C         -1.211426   8.79021   -0.962106 C.ar        1 UNL1     -0.0516
     20 C         -1.375062   9.979179   -0.241316 C.ar        1 UNL1     -0.0198
     21 C         -1.271266   9.965709   1.138131 C.ar        1 UNL1     0.1169
     22 C         -1.046574   8.777173   1.820578 C.ar        1 UNL1     -0.0198
     23 C         -0.901238   7.584914   1.101236 C.ar        1 UNL1     -0.0516
     24 O         -1.398817   11.149424   1.803675 O.3        1 UNL1     -0.5068
     25 O         2.718991   6.995338   -1.506522 O.2        1 UNL1     -0.2917
     26 O         4.018804   5.708145   0.47392 O.3        1 UNL1     -0.5058
     27 O         1.34231   2.178747   -0.0346 O.3        1 UNL1     -0.3648
     28 O         1.453727   -1.409304   0.333716 O.3        1 UNL1     -0.3841
     29 O         -0.870757   0.493301   2.290171 O.3        1 UNL1     -0.3863
     30 O         2.316125   -1.064584   3.247712 O.3        1 UNL1     -0.3829
     31 H         2.568088   0.632436   -0.325077 H        1 UNL1     0.0937
     32 H         -0.0   0.0   0.0 H        1 UNL1     0.0671
     33 H         0.019033   -1.321015   2.273711 H        1 UNL1     0.0649
     34 H         0.921454   0.135505   4.156895 H        1 UNL1     0.0683
     35 H         2.987406   1.325955   3.583376 H        1 UNL1     0.1085
     36 H         3.677576   3.918175   2.259104 H        1 UNL1     0.0691
     37 H         -0.538536   3.357544   1.524055 H        1 UNL1     0.0691
     38 H         0.523364   5.513551   -2.718188 H        1 UNL1     0.0385
     39 H         0.493856   7.286403   -2.649877 H        1 UNL1     0.0385
     40 H         -1.610829   6.2111   -1.764793 H        1 UNL1     0.0789
     41 H         -1.288487   8.828802   -2.044798 H        1 UNL1     0.0623
     42 H         -1.565438   10.913286   -0.764015 H        1 UNL1     0.0654
     43 H         -0.978443   8.752759   2.901629 H        1 UNL1     0.0654
     44 H         -0.737204   6.673169   1.667504 H        1 UNL1     0.0623
     45 H         -1.238402   11.872857   1.176276 H        1 UNL1     0.2921
     46 H         4.179847   5.738018   -0.482419 H        1 UNL1     0.2922
     47 H         1.047429   2.742909   0.693841 H        1 UNL1     0.2126
     48 H         2.172714   -1.560013   0.977204 H        1 UNL1     0.2101
     49 H         -0.851039   0.944158   3.149317 H        1 UNL1     0.2100
     50 H         2.062937   -1.618423   4.01509 H        1 UNL1     0.2102
@<TRIPOS>BOND
     1     1     2    1
     2     1     6    1
     3     2     3    1
     4     3     4    1
     5     3    29    1
     6     3    33    1
     7     4     5    1
     8     5     6    1
     9     5     7    1
    10     5    35    1
    11     7     8    1
    12     8     9   ar
    13     8    13   ar
    14     9    10   ar
    15     9    36    1
    16    10    11   ar
    17    10    26    1
    18    11    12   ar
    19    11    14    1
    20    12    13   ar
    21    12    17    1
    22    13    37    1
    23    14    15    1
    24    14    25    2
    25    15    16    1
    26    15    38    1
    27    15    39    1
    28    16    17    1
    29    16    18    1
    30    16    40    1
    31    18    19   ar
    32    18    23   ar
    33    19    20   ar
    34    19    41    1
    35    20    21   ar
    36    20    42    1
    37    21    22   ar
    38    21    24    1
    39    22    23   ar
    40    22    43    1
    41    23    44    1
    42    24    45    1
    43    26    46    1
    44    27    47    1
    45    28    48    1
    46    29    49    1
    47    30    50    1
    48     1    31    1
    49     1    27    1
    50     2    32    1
    51     2    28    1
    52     4    34    1
    53     4    30    1
