@<TRIPOS>MOLECULE
*****
 50 53 0 0 0
SMALL
GASTEIGER

@<TRIPOS>ATOM
     1 C         -0.330985   -1.329248   1.70128 C.3        1 UNL1     0.1889
     2 C         -0.462253   -0.975548   0.195423 C.3        1 UNL1     0.1342
     3 C         -1.903359   -0.962881   -0.337043 C.3        1 UNL1     0.1174
     4 C         -2.789215   -2.022581   0.322815 C.3        1 UNL1     0.1456
     5 C         -2.636823   -2.0487   1.85463 C.3        1 UNL1     0.2326
     6 O         -1.271727   -2.266816   2.20364 O.3        1 UNL1     -0.3076
     7 O         -3.211539   -0.902052   2.507486 O.3        1 UNL1     -0.4605
     8 C         -3.720401   -1.118179   3.775507 C.ar        1 UNL1     0.1310
     9 C         -4.536276   -2.191504   4.149167 C.ar        1 UNL1     0.0226
     10 C         -4.988369   -2.332571   5.466594 C.ar        1 UNL1     0.1343
     11 C         -4.615626   -1.415773   6.448625 C.ar        1 UNL1     0.1007
     12 C         -3.834948   -0.317358   6.078745 C.ar        1 UNL1     0.1389
     13 C         -3.382679   -0.174305   4.753446 C.ar        1 UNL1     0.0229
     14 C         -4.995346   -1.56232   7.872876 C.2        1 UNL1     0.1740
     15 C         -4.32601   -0.614352   8.824135 C.3        1 UNL1     0.0520
     16 C         -4.257442   0.757934   8.168325 C.3        1 UNL1     0.1322
     17 O         -3.499636   0.701799   6.939647 O.3        1 UNL1     -0.4828
     18 C         -5.616925   1.450103   8.044094 C.ar        1 UNL1     -0.0067
     19 C         -5.996937   2.013385   6.808571 C.ar        1 UNL1     -0.0516
     20 C         -7.212448   2.694699   6.673266 C.ar        1 UNL1     -0.0198
     21 C         -8.051473   2.825644   7.765382 C.ar        1 UNL1     0.1169
     22 C         -7.720253   2.25297   8.986519 C.ar        1 UNL1     -0.0198
     23 C         -6.513284   1.555705   9.117305 C.ar        1 UNL1     -0.0516
     24 O         -9.209433   3.528455   7.605426 O.3        1 UNL1     -0.5068
     25 O         -5.743672   -2.444363   8.285785 O.2        1 UNL1     -0.2917
     26 O         -5.782249   -3.401194   5.765563 O.3        1 UNL1     -0.5058
     27 O         -0.225358   -0.191453   2.542143 O.3        1 UNL1     -0.3648
     28 O         0.26798   -1.953514   -0.568153 O.3        1 UNL1     -0.3841
     29 O         -2.460882   0.350645   -0.259913 O.3        1 UNL1     -0.3863
     30 O         -2.441812   -3.323073   -0.200369 O.3        1 UNL1     -0.3829
     31 H         0.629788   -1.842086   1.819563 H        1 UNL1     0.0937
     32 H         0.0   0.0   0.0 H        1 UNL1     0.0671
     33 H         -1.86687   -1.201866   -1.409086 H        1 UNL1     0.0649
     34 H         -3.839485   -1.844208   0.066849 H        1 UNL1     0.0683
     35 H         -3.191301   -2.944776   2.160376 H        1 UNL1     0.1085
     36 H         -4.815012   -2.967948   3.445206 H        1 UNL1     0.0691
     37 H         -2.776998   0.690379   4.490833 H        1 UNL1     0.0691
     38 H         -3.323444   -1.004361   9.029761 H        1 UNL1     0.0385
     39 H         -4.885562   -0.595842   9.76559 H        1 UNL1     0.0385
     40 H         -3.662226   1.40295   8.828774 H        1 UNL1     0.0789
     41 H         -5.351714   1.932177   5.938661 H        1 UNL1     0.0623
     42 H         -7.488774   3.134934   5.718359 H        1 UNL1     0.0654
     43 H         -8.376887   2.336558   9.844281 H        1 UNL1     0.0654
     44 H         -6.291383   1.111973   10.083072 H        1 UNL1     0.0623
     45 H         -8.983777   4.436168   7.344938 H        1 UNL1     0.2921
     46 H         -5.377795   -3.913973   6.483119 H        1 UNL1     0.2922
     47 H         0.517426   0.362501   2.264174 H        1 UNL1     0.2126
     48 H         1.201037   -1.887744   -0.287417 H        1 UNL1     0.2101
     49 H         -2.022398   0.933386   -0.900178 H        1 UNL1     0.2100
     50 H         -2.675551   -3.337651   -1.151614 H        1 UNL1     0.2102
@<TRIPOS>BOND
     1     1     2    1
     2     1     6    1
     3     2     3    1
     4     3     4    1
     5     3    29    1
     6     3    33    1
     7     4     5    1
     8     5     6    1
     9     5     7    1
    10     5    35    1
    11     7     8    1
    12     8     9   ar
    13     8    13   ar
    14     9    10   ar
    15     9    36    1
    16    10    11   ar
    17    10    26    1
    18    11    12   ar
    19    11    14    1
    20    12    13   ar
    21    12    17    1
    22    13    37    1
    23    14    15    1
    24    14    25    2
    25    15    16    1
    26    15    38    1
    27    15    39    1
    28    16    17    1
    29    16    18    1
    30    16    40    1
    31    18    19   ar
    32    18    23   ar
    33    19    20   ar
    34    19    41    1
    35    20    21   ar
    36    20    42    1
    37    21    22   ar
    38    21    24    1
    39    22    23   ar
    40    22    43    1
    41    23    44    1
    42    24    45    1
    43    26    46    1
    44    27    47    1
    45    28    48    1
    46    29    49    1
    47    30    50    1
    48     1    31    1
    49     1    27    1
    50     2    32    1
    51     2    28    1
    52     4    34    1
    53     4    30    1
