@<TRIPOS>MOLECULE
*****
 50 53 0 0 0
SMALL
GASTEIGER

@<TRIPOS>ATOM
     1 C         -0.329705   -1.429996   1.617779 C.3        1 UNL1     0.1889
     2 C         -0.478062   -0.97742   0.140246 C.3        1 UNL1     0.1342
     3 C         -1.926964   -0.903755   -0.365444 C.3        1 UNL1     0.1174
     4 C         -2.822724   -1.987298   0.240084 C.3        1 UNL1     0.1456
     5 C         -2.646428   -2.115101   1.764207 C.3        1 UNL1     0.2326
     6 O         -1.280459   -2.380498   2.074952 O.3        1 UNL1     -0.3076
     7 O         -3.188112   -1.002581   2.499188 O.3        1 UNL1     -0.4605
     8 C         -3.691524   -1.292801   3.754527 C.ar        1 UNL1     0.1310
     9 C         -4.521337   -2.375725   4.064344 C.ar        1 UNL1     0.0226
     10 C         -4.966486   -2.595109   5.373396 C.ar        1 UNL1     0.1343
     11 C         -4.572839   -1.749608   6.409742 C.ar        1 UNL1     0.1007
     12 C         -3.777805   -0.641366   6.105598 C.ar        1 UNL1     0.1389
     13 C         -3.332503   -0.419493   4.788818 C.ar        1 UNL1     0.0229
     14 C         -4.944977   -1.982471   7.824465 C.2        1 UNL1     0.1740
     15 C         -4.254508   -1.108326   8.829788 C.3        1 UNL1     0.0520
     16 C         -4.169206   0.302407   8.263651 C.3        1 UNL1     0.1322
     17 O         -3.420832   0.314682   7.027991 O.3        1 UNL1     -0.4828
     18 C         -5.518627   1.021503   8.195181 C.ar        1 UNL1     -0.0067
     19 C         -5.637343   2.199944   7.430069 C.ar        1 UNL1     -0.0516
     20 C         -6.844156   2.908084   7.384212 C.ar        1 UNL1     -0.0198
     21 C         -7.934955   2.453194   8.103281 C.ar        1 UNL1     0.1169
     22 C         -7.858794   1.277801   8.839141 C.ar        1 UNL1     -0.0198
     23 C         -6.657503   0.559482   8.870379 C.ar        1 UNL1     -0.0516
     24 O         -9.082376   3.189631   8.064746 O.3        1 UNL1     -0.5068
     25 O         -5.704016   -2.878096   8.185296 O.2        1 UNL1     -0.2917
     26 O         -5.774747   -3.66883   5.608813 O.3        1 UNL1     -0.5058
     27 O         -0.188433   -0.351027   2.528083 O.3        1 UNL1     -0.3648
     28 O         0.22062   -1.917364   -0.697044 O.3        1 UNL1     -0.3841
     29 O         -2.457391   0.41213   -0.194485 O.3        1 UNL1     -0.3863
     30 O         -2.509219   -3.257487   -0.37149 O.3        1 UNL1     -0.3829
     31 H         0.622622   -1.967076   1.686322 H        1 UNL1     0.0937
     32 H         0.0   0.0   0.0 H        1 UNL1     0.0671
     33 H         -1.91228   -1.073642   -1.451098 H        1 UNL1     0.0649
     34 H         -3.873258   -1.773382   0.01421 H        1 UNL1     0.0683
     35 H         -3.21337   -3.018648   2.021225 H        1 UNL1     0.1085
     36 H         -4.816902   -3.100624   3.313822 H        1 UNL1     0.0691
     37 H         -2.715322   0.451208   4.577962 H        1 UNL1     0.0691
     38 H         -3.256713   -1.525852   9.001846 H        1 UNL1     0.0385
     39 H         -4.807216   -1.142497   9.774841 H        1 UNL1     0.0385
     40 H         -3.559541   0.894239   8.959758 H        1 UNL1     0.0789
     41 H         -4.793059   2.582692   6.864083 H        1 UNL1     0.0623
     42 H         -6.919647   3.82193   6.80009 H        1 UNL1     0.0654
     43 H         -8.711326   0.904464   9.393864 H        1 UNL1     0.0654
     44 H         -6.636802   -0.36024   9.447031 H        1 UNL1     0.0623
     45 H         -8.911193   4.046521   8.488012 H        1 UNL1     0.2921
     46 H         -5.384966   -4.220656   6.30521 H        1 UNL1     0.2922
     47 H         0.547644   0.217455   2.261852 H        1 UNL1     0.2126
     48 H         1.174467   -1.761238   -0.557283 H        1 UNL1     0.2101
     49 H         -2.159582   0.984722   -0.919221 H        1 UNL1     0.2100
     50 H         -2.784398   -3.215964   -1.31078 H        1 UNL1     0.2102
@<TRIPOS>BOND
     1     1     2    1
     2     1     6    1
     3     2     3    1
     4     3     4    1
     5     3    29    1
     6     3    33    1
     7     4     5    1
     8     5     6    1
     9     5     7    1
    10     5    35    1
    11     7     8    1
    12     8     9   ar
    13     8    13   ar
    14     9    10   ar
    15     9    36    1
    16    10    11   ar
    17    10    26    1
    18    11    12   ar
    19    11    14    1
    20    12    13   ar
    21    12    17    1
    22    13    37    1
    23    14    15    1
    24    14    25    2
    25    15    16    1
    26    15    38    1
    27    15    39    1
    28    16    17    1
    29    16    18    1
    30    16    40    1
    31    18    19   ar
    32    18    23   ar
    33    19    20   ar
    34    19    41    1
    35    20    21   ar
    36    20    42    1
    37    21    22   ar
    38    21    24    1
    39    22    23   ar
    40    22    43    1
    41    23    44    1
    42    24    45    1
    43    26    46    1
    44    27    47    1
    45    28    48    1
    46    29    49    1
    47    30    50    1
    48     1    31    1
    49     1    27    1
    50     2    32    1
    51     2    28    1
    52     4    34    1
    53     4    30    1
