@<TRIPOS>MOLECULE
*****
 50 53 0 0 0
SMALL
GASTEIGER

@<TRIPOS>ATOM
     1 C         -1.340071   -0.25733   -1.705519 C.3        1 UNL1     0.1889
     2 C         0.068961   -0.031112   -1.094458 C.3        1 UNL1     0.1342
     3 C         0.786022   1.235037   -1.587566 C.3        1 UNL1     0.1174
     4 C         0.480872   1.557497   -3.052496 C.3        1 UNL1     0.1456
     5 C         -1.021248   1.463948   -3.376917 C.3        1 UNL1     0.2326
     6 O         -1.508927   0.164434   -3.050881 O.3        1 UNL1     -0.3076
     7 O         -1.800791   2.523732   -2.793402 O.3        1 UNL1     -0.4605
     8 C         -1.859387   2.542992   -1.411474 C.ar        1 UNL1     0.1310
     9 C         -1.954527   3.692961   -0.620386 C.ar        1 UNL1     0.0226
     10 C         -2.025546   3.607542   0.775165 C.ar        1 UNL1     0.1343
     11 C         -2.027141   2.367694   1.412827 C.ar        1 UNL1     0.1007
     12 C         -1.891197   1.214055   0.636026 C.ar        1 UNL1     0.1389
     13 C         -1.81714   1.300335   -0.767007 C.ar        1 UNL1     0.0229
     14 C         -2.184369   2.215812   2.877875 C.2        1 UNL1     0.1740
     15 C         -2.388201   0.811949   3.366925 C.3        1 UNL1     0.0520
     16 C         -1.470822   -0.111362   2.57707 C.3        1 UNL1     0.1322
     17 O         -1.773164   -0.049967   1.165727 O.3        1 UNL1     -0.4828
     18 C         0.012334   0.056319   2.915976 C.ar        1 UNL1     -0.0067
     19 C         0.613206   -0.816705   3.846027 C.ar        1 UNL1     -0.0516
     20 C         1.955031   -0.661407   4.213928 C.ar        1 UNL1     -0.0198
     21 C         2.702939   0.365186   3.665689 C.ar        1 UNL1     0.1169
     22 C         2.148713   1.22039   2.722133 C.ar        1 UNL1     -0.0198
     23 C         0.812114   1.053944   2.340223 C.ar        1 UNL1     -0.0516
     24 O         3.995678   0.508577   4.076377 O.3        1 UNL1     -0.5068
     25 O         -2.229658   3.165744   3.65509 O.2        1 UNL1     -0.2917
     26 O         -2.115787   4.766824   1.488963 O.3        1 UNL1     -0.5058
     27 O         -2.396103   0.201167   -0.876445 O.3        1 UNL1     -0.3648
     28 O         0.900547   -1.155299   -1.437054 O.3        1 UNL1     -0.3841
     29 O         0.529416   2.336051   -0.713464 O.3        1 UNL1     -0.3863
     30 O         1.197167   0.633318   -3.900142 O.3        1 UNL1     -0.3829
     31 H         -1.488551   -1.341504   -1.756505 H        1 UNL1     0.0937
     32 H         0.0   0.0   0.0 H        1 UNL1     0.0671
     33 H         1.868104   1.055267   -1.520463 H        1 UNL1     0.0649
     34 H         0.84181   2.562602   -3.297217 H        1 UNL1     0.0683
     35 H         -1.062053   1.555068   -4.469579 H        1 UNL1     0.1085
     36 H         -2.014246   4.683181   -1.058585 H        1 UNL1     0.0691
     37 H         -1.710586   0.38741   -1.348992 H        1 UNL1     0.0691
     38 H         -3.440652   0.554851   3.206384 H        1 UNL1     0.0385
     39 H         -2.187114   0.773962   4.442982 H        1 UNL1     0.0385
     40 H         -1.720495   -1.141043   2.866794 H        1 UNL1     0.0789
     41 H         0.044947   -1.624741   4.297481 H        1 UNL1     0.0623
     42 H         2.403606   -1.333741   4.941087 H        1 UNL1     0.0654
     43 H         2.729651   2.018345   2.275266 H        1 UNL1     0.0654
     44 H         0.414721   1.733658   1.592618 H        1 UNL1     0.0623
     45 H         4.175018   -0.154986   4.762117 H        1 UNL1     0.2921
     46 H         -2.580841   4.597528   2.323514 H        1 UNL1     0.2922
     47 H         -3.248165   0.06631   -1.31424 H        1 UNL1     0.2126
     48 H         1.045514   -1.112221   -2.401866 H        1 UNL1     0.2101
     49 H         -0.425909   2.427039   -0.569 H        1 UNL1     0.2100
     50 H         1.504961   1.124866   -4.689671 H        1 UNL1     0.2102
@<TRIPOS>BOND
     1     1     2    1
     2     1     6    1
     3     2     3    1
     4     3     4    1
     5     3    29    1
     6     3    33    1
     7     4     5    1
     8     5     6    1
     9     5     7    1
    10     5    35    1
    11     7     8    1
    12     8     9   ar
    13     8    13   ar
    14     9    10   ar
    15     9    36    1
    16    10    11   ar
    17    10    26    1
    18    11    12   ar
    19    11    14    1
    20    12    13   ar
    21    12    17    1
    22    13    37    1
    23    14    15    1
    24    14    25    2
    25    15    16    1
    26    15    38    1
    27    15    39    1
    28    16    17    1
    29    16    18    1
    30    16    40    1
    31    18    19   ar
    32    18    23   ar
    33    19    20   ar
    34    19    41    1
    35    20    21   ar
    36    20    42    1
    37    21    22   ar
    38    21    24    1
    39    22    23   ar
    40    22    43    1
    41    23    44    1
    42    24    45    1
    43    26    46    1
    44    27    47    1
    45    28    48    1
    46    29    49    1
    47    30    50    1
    48     1    31    1
    49     1    27    1
    50     2    32    1
    51     2    28    1
    52     4    34    1
    53     4    30    1
