@<TRIPOS>MOLECULE
*****
 50 53 0 0 0
SMALL
GASTEIGER

@<TRIPOS>ATOM
     1 C         -0.33685   -1.331119   1.698664 C.3        1 UNL1     0.1889
     2 C         -0.464871   -0.974755   0.193155 C.3        1 UNL1     0.1342
     3 C         -1.905088   -0.957845   -0.341591 C.3        1 UNL1     0.1174
     4 C         -2.794503   -2.016475   0.31519 C.3        1 UNL1     0.1456
     5 C         -2.644625   -2.04535   1.847204 C.3        1 UNL1     0.2326
     6 O         -1.280609   -2.267241   2.198052 O.3        1 UNL1     -0.3076
     7 O         -3.217673   -0.898367   2.500937 O.3        1 UNL1     -0.4605
     8 C         -3.732897   -1.116205   3.766093 C.ar        1 UNL1     0.1310
     9 C         -4.554599   -2.187399   4.133038 C.ar        1 UNL1     0.0226
     10 C         -5.012974   -2.330548   5.448067 C.ar        1 UNL1     0.1343
     11 C         -4.640915   -1.418109   6.434408 C.ar        1 UNL1     0.1007
     12 C         -3.854328   -0.321698   6.071165 C.ar        1 UNL1     0.1389
     13 C         -3.395733   -0.17654   4.748269 C.ar        1 UNL1     0.0229
     14 C         -5.027407   -1.567336   7.856558 C.2        1 UNL1     0.1740
     15 C         -4.358502   -0.624805   8.813507 C.3        1 UNL1     0.0520
     16 C         -4.281692   0.749118   8.162053 C.3        1 UNL1     0.1322
     17 O         -3.51877   0.693601   6.936517 O.3        1 UNL1     -0.4828
     18 C         -5.637893   1.446997   8.033961 C.ar        1 UNL1     -0.0067
     19 C         -6.009121   2.017839   6.799237 C.ar        1 UNL1     -0.0516
     20 C         -7.221334   2.704378   6.660792 C.ar        1 UNL1     -0.0198
     21 C         -8.065754   2.833042   7.749014 C.ar        1 UNL1     0.1169
     22 C         -7.743274   2.253063   8.969043 C.ar        1 UNL1     -0.0198
     23 C         -6.539639   1.550628   9.102843 C.ar        1 UNL1     -0.0516
     24 O         -9.220204   3.540984   7.586337 O.3        1 UNL1     -0.5068
     25 O         -5.78098   -2.447632   8.263609 O.2        1 UNL1     -0.2917
     26 O         -5.812339   -3.396908   5.740433 O.3        1 UNL1     -0.5058
     27 O         -0.229879   -0.194892   2.541477 O.3        1 UNL1     -0.3648
     28 O         0.26427   -1.953252   -0.570784 O.3        1 UNL1     -0.3841
     29 O         -2.459626   0.356875   -0.263293 O.3        1 UNL1     -0.3863
     30 O         -2.449339   -3.316966   -0.209476 O.3        1 UNL1     -0.3829
     31 H         0.622518   -1.846414   1.817678 H        1 UNL1     0.0937
     32 H         0.0   0.0   0.0 H        1 UNL1     0.0671
     33 H         -1.867448   -1.19524   -1.413947 H        1 UNL1     0.0649
     34 H         -3.843937   -1.835217   0.057827 H        1 UNL1     0.0683
     35 H         -3.201709   -2.940588   2.15066 H        1 UNL1     0.1085
     36 H         -4.833312   -2.960672   3.425586 H        1 UNL1     0.0691
     37 H         -2.785525   0.686518   4.490841 H        1 UNL1     0.0691
     38 H         -3.358381   -1.019361   9.022335 H        1 UNL1     0.0385
     39 H         -4.922072   -0.606853   9.752574 H        1 UNL1     0.0385
     40 H         -3.68683   1.389845   8.82698 H        1 UNL1     0.0789
     41 H         -5.359515   1.938535   5.932419 H        1 UNL1     0.0623
     42 H         -7.490853   3.150391   5.70662 H        1 UNL1     0.0654
     43 H         -8.404217   2.334851   9.823663 H        1 UNL1     0.0654
     44 H         -6.324615   1.101268   10.067564 H        1 UNL1     0.0623
     45 H         -8.989623   4.450604   7.337057 H        1 UNL1     0.2921
     46 H         -5.41372   -3.912601   6.459164 H        1 UNL1     0.2922
     47 H         0.512968   0.359155   2.263863 H        1 UNL1     0.2126
     48 H         1.197986   -1.88622   -0.292551 H        1 UNL1     0.2101
     49 H         -2.018861   0.939534   -0.902064 H        1 UNL1     0.2100
     50 H         -2.681588   -3.329504   -1.161114 H        1 UNL1     0.2102
@<TRIPOS>BOND
     1     1     2    1
     2     1     6    1
     3     2     3    1
     4     3     4    1
     5     3    29    1
     6     3    33    1
     7     4     5    1
     8     5     6    1
     9     5     7    1
    10     5    35    1
    11     7     8    1
    12     8     9   ar
    13     8    13   ar
    14     9    10   ar
    15     9    36    1
    16    10    11   ar
    17    10    26    1
    18    11    12   ar
    19    11    14    1
    20    12    13   ar
    21    12    17    1
    22    13    37    1
    23    14    15    1
    24    14    25    2
    25    15    16    1
    26    15    38    1
    27    15    39    1
    28    16    17    1
    29    16    18    1
    30    16    40    1
    31    18    19   ar
    32    18    23   ar
    33    19    20   ar
    34    19    41    1
    35    20    21   ar
    36    20    42    1
    37    21    22   ar
    38    21    24    1
    39    22    23   ar
    40    22    43    1
    41    23    44    1
    42    24    45    1
    43    26    46    1
    44    27    47    1
    45    28    48    1
    46    29    49    1
    47    30    50    1
    48     1    31    1
    49     1    27    1
    50     2    32    1
    51     2    28    1
    52     4    34    1
    53     4    30    1
