@<TRIPOS>MOLECULE
*****
 50 53 0 0 0
SMALL
GASTEIGER

@<TRIPOS>ATOM
     1 C         -0.316042   -1.374803   1.667585 C.3        1 UNL1     0.1889
     2 C         -0.459632   -0.981034   0.172838 C.3        1 UNL1     0.1342
     3 C         -1.904927   -0.955966   -0.347698 C.3        1 UNL1     0.1174
     4 C         -2.784375   -2.034119   0.290483 C.3        1 UNL1     0.1456
     5 C         -2.619811   -2.101094   1.819795 C.3        1 UNL1     0.2326
     6 O         -1.251755   -2.326718   2.152038 O.3        1 UNL1     -0.3076
     7 O         -3.190574   -0.973104   2.507683 O.3        1 UNL1     -0.4605
     8 C         -3.699776   -1.226297   3.768689 C.ar        1 UNL1     0.1310
     9 C         -4.513384   -2.311683   4.111151 C.ar        1 UNL1     0.0226
     10 C         -4.966027   -2.491117   5.423713 C.ar        1 UNL1     0.1343
     11 C         -4.59609   -1.601684   6.43163 C.ar        1 UNL1     0.1007
     12 C         -3.817741   -0.491408   6.093633 C.ar        1 UNL1     0.1389
     13 C         -3.364921   -0.309764   4.773257 C.ar        1 UNL1     0.0229
     14 C         -4.976419   -1.789458   7.850871 C.2        1 UNL1     0.1740
     15 C         -4.309942   -0.867305   8.82913 C.3        1 UNL1     0.0520
     16 C         -4.24415   0.523189   8.212563 C.3        1 UNL1     0.1322
     17 O         -3.485394   0.503692   6.983345 O.3        1 UNL1     -0.4828
     18 C         -5.605168   1.215443   8.107017 C.ar        1 UNL1     -0.0067
     19 C         -5.737607   2.363005   7.298454 C.ar        1 UNL1     -0.0516
     20 C         -6.95605   3.047646   7.217054 C.ar        1 UNL1     -0.0198
     21 C         -8.04502   2.60007   7.943447 C.ar        1 UNL1     0.1169
     22 C         -7.954925   1.453741   8.722325 C.ar        1 UNL1     -0.0198
     23 C         -6.741701   0.7583   8.789444 C.ar        1 UNL1     -0.0516
     24 O         -9.204635   3.314298   7.868809 O.3        1 UNL1     -0.5068
     25 O         -5.722953   -2.684595   8.238042 O.2        1 UNL1     -0.2917
     26 O         -5.757602   -3.569633   5.691665 O.3        1 UNL1     -0.5058
     27 O         -0.204983   -0.259821   2.537796 O.3        1 UNL1     -0.3648
     28 O         0.265583   -1.937233   -0.622432 O.3        1 UNL1     -0.3841
     29 O         -2.463244   0.354298   -0.230971 O.3        1 UNL1     -0.3863
     30 O         -2.439723   -3.319668   -0.270114 O.3        1 UNL1     -0.3829
     31 H         0.646194   -1.889382   1.764481 H        1 UNL1     0.0937
     32 H         0.0   0.0   0.0 H        1 UNL1     0.0671
     33 H         -1.876682   -1.16608   -1.426018 H        1 UNL1     0.0649
     34 H         -3.836834   -1.85031   0.047696 H        1 UNL1     0.0683
     35 H         -3.170875   -3.005762   2.105773 H        1 UNL1     0.1085
     36 H         -4.789829   -3.06849   3.385243 H        1 UNL1     0.0691
     37 H         -2.761092   0.563426   4.535724 H        1 UNL1     0.0691
     38 H         -3.306604   -1.260661   9.024348 H        1 UNL1     0.0385
     39 H         -4.870166   -0.876811   9.77032 H        1 UNL1     0.0385
     40 H         -3.650889   1.15059   8.891481 H        1 UNL1     0.0789
     41 H         -4.895187   2.739724   6.725686 H        1 UNL1     0.0623
     42 H         -7.042265   3.938172   6.599363 H        1 UNL1     0.0654
     43 H         -8.805657   1.08587   9.283429 H        1 UNL1     0.0654
     44 H         -6.710098   -0.139334   9.399443 H        1 UNL1     0.0623
     45 H         -9.040041   4.204022   8.220969 H        1 UNL1     0.2921
     46 H         -5.364394   -4.088817   6.410864 H        1 UNL1     0.2922
     47 H         0.521989   0.313194   2.256681 H        1 UNL1     0.2126
     48 H         1.211403   -1.816701   -0.411177 H        1 UNL1     0.2101
     49 H         -2.036619   0.952493   -0.864965 H        1 UNL1     0.2100
     50 H         -2.706884   -3.318998   -1.21263 H        1 UNL1     0.2102
@<TRIPOS>BOND
     1     1     2    1
     2     1     6    1
     3     2     3    1
     4     3     4    1
     5     3    29    1
     6     3    33    1
     7     4     5    1
     8     5     6    1
     9     5     7    1
    10     5    35    1
    11     7     8    1
    12     8     9   ar
    13     8    13   ar
    14     9    10   ar
    15     9    36    1
    16    10    11   ar
    17    10    26    1
    18    11    12   ar
    19    11    14    1
    20    12    13   ar
    21    12    17    1
    22    13    37    1
    23    14    15    1
    24    14    25    2
    25    15    16    1
    26    15    38    1
    27    15    39    1
    28    16    17    1
    29    16    18    1
    30    16    40    1
    31    18    19   ar
    32    18    23   ar
    33    19    20   ar
    34    19    41    1
    35    20    21   ar
    36    20    42    1
    37    21    22   ar
    38    21    24    1
    39    22    23   ar
    40    22    43    1
    41    23    44    1
    42    24    45    1
    43    26    46    1
    44    27    47    1
    45    28    48    1
    46    29    49    1
    47    30    50    1
    48     1    31    1
    49     1    27    1
    50     2    32    1
    51     2    28    1
    52     4    34    1
    53     4    30    1
