@<TRIPOS>MOLECULE
*****
 50 53 0 0 0
SMALL
GASTEIGER

@<TRIPOS>ATOM
     1 C         0.035008   -2.180096   0.129455 C.3        1 UNL1     0.1889
     2 C         -0.636006   -0.845018   -0.291552 C.3        1 UNL1     0.1342
     3 C         -2.047141   -0.629493   0.276526 C.3        1 UNL1     0.1174
     4 C         -2.844436   -1.930815   0.394845 C.3        1 UNL1     0.1456
     5 C         -2.026807   -3.067883   1.034314 C.3        1 UNL1     0.2326
     6 O         -0.835372   -3.291417   0.283725 O.3        1 UNL1     -0.3076
     7 O         -1.782832   -2.878087   2.439936 O.3        1 UNL1     -0.4605
     8 C         -2.855867   -2.424048   3.185573 C.ar        1 UNL1     0.1310
     9 C         -3.247175   -2.926009   4.431451 C.ar        1 UNL1     0.0226
     10 C         -4.341285   -2.386152   5.118023 C.ar        1 UNL1     0.1343
     11 C         -5.056756   -1.314432   4.585711 C.ar        1 UNL1     0.1007
     12 C         -4.700894   -0.831513   3.323596 C.ar        1 UNL1     0.1389
     13 C         -3.602372   -1.376245   2.632258 C.ar        1 UNL1     0.0229
     14 C         -6.168259   -0.651106   5.30593 C.2        1 UNL1     0.1740
     15 C         -6.675598   0.618951   4.688589 C.3        1 UNL1     0.0520
     16 C         -6.718802   0.4365   3.177694 C.3        1 UNL1     0.1322
     17 O         -5.402157   0.147176   2.658265 O.3        1 UNL1     -0.4828
     18 C         -7.812686   -0.523588   2.704015 C.ar        1 UNL1     -0.0067
     19 C         -7.611251   -1.914344   2.819926 C.ar        1 UNL1     -0.0516
     20 C         -8.570922   -2.820517   2.353186 C.ar        1 UNL1     -0.0198
     21 C         -9.730289   -2.349679   1.763264 C.ar        1 UNL1     0.1169
     22 C         -9.972308   -0.985629   1.665119 C.ar        1 UNL1     -0.0198
     23 C         -9.021105   -0.079186   2.148473 C.ar        1 UNL1     -0.0516
     24 O         -10.624866   -3.262158   1.286279 O.3        1 UNL1     -0.5068
     25 O         -6.609936   -1.048513   6.38086 O.2        1 UNL1     -0.2917
     26 O         -4.671795   -2.921853   6.328549 O.3        1 UNL1     -0.5058
     27 O         0.915059   -2.046773   1.234228 O.3        1 UNL1     -0.3648
     28 O         -0.743886   -0.821538   -1.727002 O.3        1 UNL1     -0.3841
     29 O         -1.993592   0.100304   1.503987 O.3        1 UNL1     -0.3863
     30 O         -3.268835   -2.347689   -0.921131 O.3        1 UNL1     -0.3829
     31 H         0.686177   -2.477996   -0.699589 H        1 UNL1     0.0937
     32 H         0.0   0.0   0.0 H        1 UNL1     0.0671
     33 H         -2.595323   0.016559   -0.423354 H        1 UNL1     0.0649
     34 H         -3.751544   -1.761259   0.985444 H        1 UNL1     0.0683
     35 H         -2.658614   -3.955047   0.901502 H        1 UNL1     0.1085
     36 H         -2.697905   -3.720858   4.924036 H        1 UNL1     0.0691
     37 H         -3.346462   -0.983247   1.650649 H        1 UNL1     0.0691
     38 H         -5.986336   1.422277   4.969857 H        1 UNL1     0.0385
     39 H         -7.661147   0.852138   5.105836 H        1 UNL1     0.0385
     40 H         -6.97816   1.410571   2.7413 H        1 UNL1     0.0789
     41 H         -6.705471   -2.309193   3.270822 H        1 UNL1     0.0623
     42 H         -8.398625   -3.890662   2.437534 H        1 UNL1     0.0654
     43 H         -10.883592   -0.606091   1.218552 H        1 UNL1     0.0654
     44 H         -9.247777   0.979348   2.064986 H        1 UNL1     0.0623
     45 H         -11.149867   -2.840307   0.5869 H        1 UNL1     0.2921
     46 H         -4.11825   -2.52537   7.019781 H        1 UNL1     0.2922
     47 H         1.826135   -2.220812   0.959438 H        1 UNL1     0.2126
     48 H         -0.865159   -1.747237   -2.013545 H        1 UNL1     0.2101
     49 H         -2.032297   -0.513399   2.254763 H        1 UNL1     0.2100
     50 H         -3.467586   -1.542732   -1.442911 H        1 UNL1     0.2102
@<TRIPOS>BOND
     1     1     2    1
     2     1     6    1
     3     2     3    1
     4     3     4    1
     5     3    29    1
     6     3    33    1
     7     4     5    1
     8     5     6    1
     9     5     7    1
    10     5    35    1
    11     7     8    1
    12     8     9   ar
    13     8    13   ar
    14     9    10   ar
    15     9    36    1
    16    10    11   ar
    17    10    26    1
    18    11    12   ar
    19    11    14    1
    20    12    13   ar
    21    12    17    1
    22    13    37    1
    23    14    15    1
    24    14    25    2
    25    15    16    1
    26    15    38    1
    27    15    39    1
    28    16    17    1
    29    16    18    1
    30    16    40    1
    31    18    19   ar
    32    18    23   ar
    33    19    20   ar
    34    19    41    1
    35    20    21   ar
    36    20    42    1
    37    21    22   ar
    38    21    24    1
    39    22    23   ar
    40    22    43    1
    41    23    44    1
    42    24    45    1
    43    26    46    1
    44    27    47    1
    45    28    48    1
    46    29    49    1
    47    30    50    1
    48     1    31    1
    49     1    27    1
    50     2    32    1
    51     2    28    1
    52     4    34    1
    53     4    30    1
