@<TRIPOS>MOLECULE
*****
 50 53 0 0 0
SMALL
GASTEIGER

@<TRIPOS>ATOM
     1 C         -0.326991   -1.332249   1.699704 C.3        1 UNL1     0.1889
     2 C         -0.461396   -0.976098   0.194702 C.3        1 UNL1     0.1342
     3 C         -1.903554   -0.963242   -0.334903 C.3        1 UNL1     0.1174
     4 C         -2.787597   -2.024473   0.324925 C.3        1 UNL1     0.1456
     5 C         -2.632175   -2.053077   1.856392 C.3        1 UNL1     0.2326
     6 O         -1.266289   -2.271111   2.202349 O.3        1 UNL1     -0.3076
     7 O         -3.206158   -0.907801   2.512293 O.3        1 UNL1     -0.4605
     8 C         -3.712416   -1.126292   3.780951 C.ar        1 UNL1     0.1310
     9 C         -4.527035   -2.200636   4.154422 C.ar        1 UNL1     0.0226
     10 C         -4.976464   -2.344124   5.4725 C.ar        1 UNL1     0.1343
     11 C         -4.60223   -1.428786   6.455326 C.ar        1 UNL1     0.1007
     12 C         -3.822813   -0.329376   6.085746 C.ar        1 UNL1     0.1389
     13 C         -3.373224   -0.183889   4.759799 C.ar        1 UNL1     0.0229
     14 C         -4.979073   -1.577897   7.880075 C.2        1 UNL1     0.1740
     15 C         -4.308322   -0.631194   8.831597 C.3        1 UNL1     0.0520
     16 C         -4.241708   0.742219   8.177948 C.3        1 UNL1     0.1322
     17 O         -3.486298   0.688505   6.947688 O.3        1 UNL1     -0.4828
     18 C         -5.601767   1.433933   8.057551 C.ar        1 UNL1     -0.0067
     19 C         -5.984485   1.999093   6.823722 C.ar        1 UNL1     -0.0516
     20 C         -7.200589   2.680041   6.691949 C.ar        1 UNL1     -0.0198
     21 C         -8.037525   2.808754   7.785932 C.ar        1 UNL1     0.1169
     22 C         -7.703623   2.234202   9.005456 C.ar        1 UNL1     -0.0198
     23 C         -6.496062   1.537307   9.1327 C.ar        1 UNL1     -0.0516
     24 O         -9.196137   3.511268   7.629432 O.3        1 UNL1     -0.5068
     25 O         -5.726158   -2.460992   8.292981 O.2        1 UNL1     -0.2917
     26 O         -5.769237   -3.413631   5.771245 O.3        1 UNL1     -0.5058
     27 O         -0.220258   -0.195808   2.542259 O.3        1 UNL1     -0.3648
     28 O         0.267804   -1.952431   -0.571943 O.3        1 UNL1     -0.3841
     29 O         -2.461558   0.349882   -0.254481 O.3        1 UNL1     -0.3863
     30 O         -2.440597   -3.32392   -0.201114 O.3        1 UNL1     -0.3829
     31 H         0.634261   -1.844816   1.815239 H        1 UNL1     0.0937
     32 H         0.0   0.0   0.0 H        1 UNL1     0.0671
     33 H         -1.869061   -1.200419   -1.407413 H        1 UNL1     0.0649
     34 H         -3.838454   -1.846183   0.071327 H        1 UNL1     0.0683
     35 H         -3.185617   -2.949932   2.161732 H        1 UNL1     0.1085
     36 H         -4.806782   -2.97604   3.449715 H        1 UNL1     0.0691
     37 H         -2.76848   0.681527   4.49744 H        1 UNL1     0.0691
     38 H         -3.305165   -1.021058   9.034597 H        1 UNL1     0.0385
     39 H         -4.866027   -0.614528   9.774181 H        1 UNL1     0.0385
     40 H         -3.645504   1.386421   8.8383 H        1 UNL1     0.0789
     41 H         -5.340938   1.919653   5.952408 H        1 UNL1     0.0623
     42 H         -7.479008   3.121737   5.738325 H        1 UNL1     0.0654
     43 H         -8.358606   2.316039   9.864648 H        1 UNL1     0.0654
     44 H         -6.272045   1.09207   10.097285 H        1 UNL1     0.0623
     45 H         -8.971433   4.419524   7.370017 H        1 UNL1     0.2921
     46 H         -5.363122   -3.927411   6.487145 H        1 UNL1     0.2922
     47 H         0.52171   0.35897   2.263753 H        1 UNL1     0.2126
     48 H         1.20138   -1.886677   -0.292936 H        1 UNL1     0.2101
     49 H         -2.024618   0.933905   -0.894633 H        1 UNL1     0.2100
     50 H         -2.676202   -3.337023   -1.15192 H        1 UNL1     0.2102
@<TRIPOS>BOND
     1     1     2    1
     2     1     6    1
     3     2     3    1
     4     3     4    1
     5     3    29    1
     6     3    33    1
     7     4     5    1
     8     5     6    1
     9     5     7    1
    10     5    35    1
    11     7     8    1
    12     8     9   ar
    13     8    13   ar
    14     9    10   ar
    15     9    36    1
    16    10    11   ar
    17    10    26    1
    18    11    12   ar
    19    11    14    1
    20    12    13   ar
    21    12    17    1
    22    13    37    1
    23    14    15    1
    24    14    25    2
    25    15    16    1
    26    15    38    1
    27    15    39    1
    28    16    17    1
    29    16    18    1
    30    16    40    1
    31    18    19   ar
    32    18    23   ar
    33    19    20   ar
    34    19    41    1
    35    20    21   ar
    36    20    42    1
    37    21    22   ar
    38    21    24    1
    39    22    23   ar
    40    22    43    1
    41    23    44    1
    42    24    45    1
    43    26    46    1
    44    27    47    1
    45    28    48    1
    46    29    49    1
    47    30    50    1
    48     1    31    1
    49     1    27    1
    50     2    32    1
    51     2    28    1
    52     4    34    1
    53     4    30    1
