@<TRIPOS>MOLECULE
*****
 50 53 0 0 0
SMALL
GASTEIGER

@<TRIPOS>ATOM
     1 C         -0.336573   -1.330119   1.699502 C.3        1 UNL1     0.1889
     2 C         -0.464965   -0.974576   0.193831 C.3        1 UNL1     0.1342
     3 C         -1.905331   -0.957744   -0.340517 C.3        1 UNL1     0.1174
     4 C         -2.794723   -2.01587   0.317106 C.3        1 UNL1     0.1456
     5 C         -2.644415   -2.043913   1.849093 C.3        1 UNL1     0.2326
     6 O         -1.280335   -2.265818   2.199679 O.3        1 UNL1     -0.3076
     7 O         -3.217103   -0.896478   2.502348 O.3        1 UNL1     -0.4605
     8 C         -3.728178   -1.112595   3.76948 C.ar        1 UNL1     0.1310
     9 C         -4.547245   -2.184236   4.140984 C.ar        1 UNL1     0.0226
     10 C         -5.001428   -2.325488   5.457673 C.ar        1 UNL1     0.1343
     11 C         -4.627672   -1.410619   6.441117 C.ar        1 UNL1     0.1007
     12 C         -3.843744   -0.313803   6.073372 C.ar        1 UNL1     0.1389
     13 C         -3.38937   -0.170558   4.748814 C.ar        1 UNL1     0.0229
     14 C         -5.009637   -1.55764   7.864718 C.2        1 UNL1     0.1740
     15 C         -4.33917   -0.612317   8.817812 C.3        1 UNL1     0.0520
     16 C         -4.266282   0.76045   8.163478 C.3        1 UNL1     0.1322
     17 O         -3.507002   0.70364   6.935741 O.3        1 UNL1     -0.4828
     18 C         -5.623853   1.456166   8.038156 C.ar        1 UNL1     -0.0067
     19 C         -6.000817   2.021645   6.802703 C.ar        1 UNL1     -0.0516
     20 C         -7.214429   2.706154   6.666485 C.ar        1 UNL1     -0.0198
     21 C         -8.054561   2.838116   7.757628 C.ar        1 UNL1     0.1169
     22 C         -7.726393   2.263382   8.978622 C.ar        1 UNL1     -0.0198
     23 C         -6.521358   1.562948   9.110293 C.ar        1 UNL1     -0.0516
     24 O         -9.210536   3.544002   7.596858 O.3        1 UNL1     -0.5068
     25 O         -5.760725   -2.438209   8.275753 O.2        1 UNL1     -0.2917
     26 O         -5.79839   -3.392407   5.75452 O.3        1 UNL1     -0.5058
     27 O         -0.22919   -0.193439   2.54165 O.3        1 UNL1     -0.3648
     28 O         0.263809   -1.953611   -0.569769 O.3        1 UNL1     -0.3841
     29 O         -2.459646   0.357105   -0.262797 O.3        1 UNL1     -0.3863
     30 O         -2.449906   -3.316707   -0.206931 O.3        1 UNL1     -0.3829
     31 H         0.622749   -1.845494   1.818532 H        1 UNL1     0.0937
     32 H         0.0   0.0   0.0 H        1 UNL1     0.0671
     33 H         -1.868031   -1.195743   -1.412751 H        1 UNL1     0.0649
     34 H         -3.844201   -1.834595   0.059939 H        1 UNL1     0.0683
     35 H         -3.201551   -2.938896   2.153206 H        1 UNL1     0.1085
     36 H         -4.827007   -2.959268   3.435875 H        1 UNL1     0.0691
     37 H         -2.781168   0.692861   4.48787 H        1 UNL1     0.0691
     38 H         -3.337861   -1.005057   9.024364 H        1 UNL1     0.0385
     39 H         -4.899914   -0.593344   9.758549 H        1 UNL1     0.0385
     40 H         -3.670315   1.403301   8.825358 H        1 UNL1     0.0789
     41 H         -5.354655   1.939686   5.933561 H        1 UNL1     0.0623
     42 H         -7.488387   3.148044   5.71166 H        1 UNL1     0.0654
     43 H         -8.383944   2.347763   9.835603 H        1 UNL1     0.0654
     44 H         -6.301848   1.117688   10.075903 H        1 UNL1     0.0623
     45 H         -8.982272   4.451215   7.336902 H        1 UNL1     0.2921
     46 H         -5.395657   -3.907507   6.471382 H        1 UNL1     0.2922
     47 H         0.515458   0.358832   2.265323 H        1 UNL1     0.2126
     48 H         1.196536   -1.890963   -0.287229 H        1 UNL1     0.2101
     49 H         -2.018794   0.939404   -0.901836 H        1 UNL1     0.2100
     50 H         -2.682427   -3.32974   -1.158497 H        1 UNL1     0.2102
@<TRIPOS>BOND
     1     1     2    1
     2     1     6    1
     3     2     3    1
     4     3     4    1
     5     3    29    1
     6     3    33    1
     7     4     5    1
     8     5     6    1
     9     5     7    1
    10     5    35    1
    11     7     8    1
    12     8     9   ar
    13     8    13   ar
    14     9    10   ar
    15     9    36    1
    16    10    11   ar
    17    10    26    1
    18    11    12   ar
    19    11    14    1
    20    12    13   ar
    21    12    17    1
    22    13    37    1
    23    14    15    1
    24    14    25    2
    25    15    16    1
    26    15    38    1
    27    15    39    1
    28    16    17    1
    29    16    18    1
    30    16    40    1
    31    18    19   ar
    32    18    23   ar
    33    19    20   ar
    34    19    41    1
    35    20    21   ar
    36    20    42    1
    37    21    22   ar
    38    21    24    1
    39    22    23   ar
    40    22    43    1
    41    23    44    1
    42    24    45    1
    43    26    46    1
    44    27    47    1
    45    28    48    1
    46    29    49    1
    47    30    50    1
    48     1    31    1
    49     1    27    1
    50     2    32    1
    51     2    28    1
    52     4    34    1
    53     4    30    1
