@<TRIPOS>MOLECULE
*****
 50 53 0 0 0
SMALL
GASTEIGER

@<TRIPOS>ATOM
     1 C         1.468933   -1.307431   -0.950613 C.3        1 UNL1     0.1889
     2 C         0.461675   -0.978077   0.183802 C.3        1 UNL1     0.1342
     3 C         1.061891   -0.991063   1.598029 C.3        1 UNL1     0.1174
     4 C         2.152302   -2.051465   1.770268 C.3        1 UNL1     0.1456
     5 C         3.163135   -2.05265   0.608985 C.3        1 UNL1     0.2326
     6 O         2.48199   -2.248768   -0.628128 O.3        1 UNL1     -0.3076
     7 O         4.029473   -0.90342   0.601957 O.3        1 UNL1     -0.4605
     8 C         5.352182   -1.139347   0.931055 C.ar        1 UNL1     0.1310
     9 C         6.29833   -0.155971   1.239402 C.ar        1 UNL1     0.0226
     10 C         7.613139   -0.49748   1.577853 C.ar        1 UNL1     0.1343
     11 C         8.007794   -1.833257   1.639409 C.ar        1 UNL1     0.1007
     12 C         7.083008   -2.82222   1.293712 C.ar        1 UNL1     0.1389
     13 C         5.761758   -2.478441   0.950866 C.ar        1 UNL1     0.0229
     14 C         9.360366   -2.254221   2.072412 C.2        1 UNL1     0.1740
     15 C         9.541981   -3.727085   2.294303 C.3        1 UNL1     0.0520
     16 C         8.803325   -4.47493   1.192908 C.3        1 UNL1     0.1322
     17 O         7.393578   -4.160028   1.215711 O.3        1 UNL1     -0.4828
     18 C         9.459258   -4.348972   -0.184267 C.ar        1 UNL1     -0.0067
     19 C         9.326261   -3.145718   -0.907251 C.ar        1 UNL1     -0.0516
     20 C         9.873311   -3.013731   -2.189155 C.ar        1 UNL1     -0.0198
     21 C         10.547769   -4.07777   -2.760779 C.ar        1 UNL1     0.1169
     22 C         10.724096   -5.263998   -2.060343 C.ar        1 UNL1     -0.0198
     23 C         10.193071   -5.389918   -0.771075 C.ar        1 UNL1     -0.0516
     24 O         11.034186   -3.925198   -4.025896 O.3        1 UNL1     -0.5068
     25 O         10.267853   -1.464113   2.318752 O.2        1 UNL1     -0.2917
     26 O         8.487474   0.509328   1.86675 O.3        1 UNL1     -0.5058
     27 O         2.005782   -0.155896   -1.581919 O.3        1 UNL1     -0.3648
     28 O         -0.592317   -1.958422   0.156748 O.3        1 UNL1     -0.3841
     29 O         1.496856   0.316557   1.976274 O.3        1 UNL1     -0.3863
     30 O         1.536597   -3.35534   1.850939 O.3        1 UNL1     -0.3829
     31 H         0.897739   -1.806636   -1.740935 H        1 UNL1     0.0937
     32 H         0.0   0.0   0.0 H        1 UNL1     0.0671
     33 H         0.256995   -1.245698   2.301607 H        1 UNL1     0.0649
     34 H         2.68547   -1.88983   2.71367 H        1 UNL1     0.0683
     35 H         3.768148   -2.950738   0.785839 H        1 UNL1     0.1085
     36 H         6.039269   0.896839   1.263889 H        1 UNL1     0.0691
     37 H         5.061257   -3.267083   0.684715 H        1 UNL1     0.0691
     38 H         9.129116   -3.966898   3.27998 H        1 UNL1     0.0385
     39 H         10.612432   -3.958971   2.306198 H        1 UNL1     0.0385
     40 H         8.849841   -5.544129   1.440234 H        1 UNL1     0.0789
     41 H         8.793525   -2.299001   -0.484269 H        1 UNL1     0.0623
     42 H         9.75376   -2.084841   -2.741316 H        1 UNL1     0.0654
     43 H         11.263527   -6.098331   -2.492561 H        1 UNL1     0.0654
     44 H         10.358872   -6.327155   -0.248637 H        1 UNL1     0.0623
     45 H         10.876566   -3.009213   -4.306686 H        1 UNL1     0.2921
     46 H         8.25049   1.299923   1.356641 H        1 UNL1     0.2922
     47 H         1.625485   0.645509   -1.195935 H        1 UNL1     0.2126
     48 H         -0.918617   -1.992965   -0.763071 H        1 UNL1     0.2101
     49 H         2.41152   0.279749   2.298501 H        1 UNL1     0.2100
     50 H         1.986274   -3.857662   2.561695 H        1 UNL1     0.2102
@<TRIPOS>BOND
     1     1     2    1
     2     1     6    1
     3     2     3    1
     4     3     4    1
     5     3    29    1
     6     3    33    1
     7     4     5    1
     8     5     6    1
     9     5     7    1
    10     5    35    1
    11     7     8    1
    12     8     9   ar
    13     8    13   ar
    14     9    10   ar
    15     9    36    1
    16    10    11   ar
    17    10    26    1
    18    11    12   ar
    19    11    14    1
    20    12    13   ar
    21    12    17    1
    22    13    37    1
    23    14    15    1
    24    14    25    2
    25    15    16    1
    26    15    38    1
    27    15    39    1
    28    16    17    1
    29    16    18    1
    30    16    40    1
    31    18    19   ar
    32    18    23   ar
    33    19    20   ar
    34    19    41    1
    35    20    21   ar
    36    20    42    1
    37    21    22   ar
    38    21    24    1
    39    22    23   ar
    40    22    43    1
    41    23    44    1
    42    24    45    1
    43    26    46    1
    44    27    47    1
    45    28    48    1
    46    29    49    1
    47    30    50    1
    48     1    31    1
    49     1    27    1
    50     2    32    1
    51     2    28    1
    52     4    34    1
    53     4    30    1
