@<TRIPOS>MOLECULE
*****
 50 53 0 0 0
SMALL
GASTEIGER

@<TRIPOS>ATOM
     1 C         -0.335935   -1.330113   1.699633 C.3        1 UNL1     0.1889
     2 C         -0.464547   -0.974754   0.193937 C.3        1 UNL1     0.1342
     3 C         -1.904945   -0.958573   -0.340345 C.3        1 UNL1     0.1174
     4 C         -2.793861   -2.017016   0.317412 C.3        1 UNL1     0.1456
     5 C         -2.64347   -2.044863   1.849394 C.3        1 UNL1     0.2326
     6 O         -1.27928   -2.266165   2.199935 O.3        1 UNL1     -0.3076
     7 O         -3.216609   -0.897612   2.502577 O.3        1 UNL1     -0.4605
     8 C         -3.727959   -1.113939   3.769562 C.ar        1 UNL1     0.1310
     9 C         -4.546858   -2.185805   4.140783 C.ar        1 UNL1     0.0226
     10 C         -5.001347   -2.327256   5.457345 C.ar        1 UNL1     0.1343
     11 C         -4.62807   -1.41236   6.440946 C.ar        1 UNL1     0.1007
     12 C         -3.844317   -0.315328   6.073477 C.ar        1 UNL1     0.1389
     13 C         -3.389635   -0.171883   4.749046 C.ar        1 UNL1     0.0229
     14 C         -5.010368   -1.559569   7.864439 C.2        1 UNL1     0.1740
     15 C         -4.34038   -0.614145   8.817769 C.3        1 UNL1     0.0520
     16 C         -4.26766   0.758683   8.163544 C.3        1 UNL1     0.1322
     17 O         -3.508048   0.702141   6.936001 O.3        1 UNL1     -0.4828
     18 C         -5.625369   1.454074   8.037917 C.ar        1 UNL1     -0.0067
     19 C         -6.001363   2.021175   6.802912 C.ar        1 UNL1     -0.0516
     20 C         -7.215099   2.705428   6.666511 C.ar        1 UNL1     -0.0198
     21 C         -8.056322   2.835521   7.757037 C.ar        1 UNL1     0.1169
     22 C         -7.729108   2.259168   8.977523 C.ar        1 UNL1     -0.0198
     23 C         -6.523938   1.558993   9.109347 C.ar        1 UNL1     -0.0516
     24 O         -9.212405   3.541208   7.596169 O.3        1 UNL1     -0.5068
     25 O         -5.761346   -2.440351   8.275221 O.2        1 UNL1     -0.2917
     26 O         -5.798124   -3.394391   5.753915 O.3        1 UNL1     -0.5058
     27 O         -0.228989   -0.193315   2.541678 O.3        1 UNL1     -0.3648
     28 O         0.264602   -1.953549   -0.569612 O.3        1 UNL1     -0.3841
     29 O         -2.459808   0.356049   -0.262712 O.3        1 UNL1     -0.3863
     30 O         -2.448523   -3.317753   -0.20653 O.3        1 UNL1     -0.3829
     31 H         0.623609   -1.845075   1.818663 H        1 UNL1     0.0937
     32 H         0.0   0.0   0.0 H        1 UNL1     0.0671
     33 H         -1.867595   -1.196649   -1.41256 H        1 UNL1     0.0649
     34 H         -3.843428   -1.836203   0.060278 H        1 UNL1     0.0683
     35 H         -3.200216   -2.940053   2.153611 H        1 UNL1     0.1085
     36 H         -4.826247   -2.96086   3.43555 H        1 UNL1     0.0691
     37 H         -2.781578   0.691702   4.488316 H        1 UNL1     0.0691
     38 H         -3.339028   -1.006653   9.024554 H        1 UNL1     0.0385
     39 H         -4.901372   -0.595372   9.758362 H        1 UNL1     0.0385
     40 H         -3.672022   1.401636   8.825622 H        1 UNL1     0.0789
     41 H         -5.35434   1.940696   5.934272 H        1 UNL1     0.0623
     42 H         -7.488308   3.148579   5.712055 H        1 UNL1     0.0654
     43 H         -8.387509   2.342081   9.833995 H        1 UNL1     0.0654
     44 H         -6.305185   1.112437   10.07453 H        1 UNL1     0.0623
     45 H         -8.984211   4.449064   7.338406 H        1 UNL1     0.2921
     46 H         -5.395967   -3.908856   6.471555 H        1 UNL1     0.2922
     47 H         0.515308   0.359333   2.265161 H        1 UNL1     0.2126
     48 H         1.197437   -1.889996   -0.287633 H        1 UNL1     0.2101
     49 H         -2.01929   0.938457   -0.901883 H        1 UNL1     0.2100
     50 H         -2.331771   -3.231273   -1.175345 H        1 UNL1     0.2102
@<TRIPOS>BOND
     1     1     2    1
     2     1     6    1
     3     2     3    1
     4     3     4    1
     5     3    29    1
     6     3    33    1
     7     4     5    1
     8     5     6    1
     9     5     7    1
    10     5    35    1
    11     7     8    1
    12     8     9   ar
    13     8    13   ar
    14     9    10   ar
    15     9    36    1
    16    10    11   ar
    17    10    26    1
    18    11    12   ar
    19    11    14    1
    20    12    13   ar
    21    12    17    1
    22    13    37    1
    23    14    15    1
    24    14    25    2
    25    15    16    1
    26    15    38    1
    27    15    39    1
    28    16    17    1
    29    16    18    1
    30    16    40    1
    31    18    19   ar
    32    18    23   ar
    33    19    20   ar
    34    19    41    1
    35    20    21   ar
    36    20    42    1
    37    21    22   ar
    38    21    24    1
    39    22    23   ar
    40    22    43    1
    41    23    44    1
    42    24    45    1
    43    26    46    1
    44    27    47    1
    45    28    48    1
    46    29    49    1
    47    30    50    1
    48     1    31    1
    49     1    27    1
    50     2    32    1
    51     2    28    1
    52     4    34    1
    53     4    30    1
