@<TRIPOS>MOLECULE
*****
 50 53 0 0 0
SMALL
GASTEIGER

@<TRIPOS>ATOM
     1 C         1.364153   -1.461659   -0.879457 C.3        1 UNL1     0.1889
     2 C         -0.045014   -0.831738   -0.713966 C.3        1 UNL1     0.1342
     3 C         -1.138764   -1.814952   -0.269592 C.3        1 UNL1     0.1174
     4 C         -0.945683   -3.218778   -0.848478 C.3        1 UNL1     0.1456
     5 C         0.504497   -3.718157   -0.714459 C.3        1 UNL1     0.2326
     6 O         1.394585   -2.801876   -1.347737 O.3        1 UNL1     -0.3076
     7 O         0.881011   -4.028654   0.639479 O.3        1 UNL1     -0.4605
     8 C         -0.031836   -3.678428   1.618039 C.ar        1 UNL1     0.1310
     9 C         0.147854   -3.854666   2.994248 C.ar        1 UNL1     0.0226
     10 C         -0.831308   -3.450561   3.909586 C.ar        1 UNL1     0.1343
     11 C         -2.004822   -2.838094   3.471877 C.ar        1 UNL1     0.1007
     12 C         -2.213612   -2.693978   2.097679 C.ar        1 UNL1     0.1389
     13 C         -1.230075   -3.10279   1.177376 C.ar        1 UNL1     0.0229
     14 C         -3.035025   -2.315979   4.399364 C.2        1 UNL1     0.1740
     15 C         -4.119105   -1.492356   3.76852 C.3        1 UNL1     0.0520
     16 C         -4.509814   -2.140664   2.447535 C.3        1 UNL1     0.1322
     17 O         -3.377518   -2.203651   1.552545 O.3        1 UNL1     -0.4828
     18 C         -5.264848   -3.462211   2.609278 C.ar        1 UNL1     -0.0067
     19 C         -5.323707   -4.363221   1.526259 C.ar        1 UNL1     -0.0516
     20 C         -6.04545   -5.558763   1.624892 C.ar        1 UNL1     -0.0198
     21 C         -6.717197   -5.860679   2.795973 C.ar        1 UNL1     0.1169
     22 C         -6.650444   -5.00931   3.891214 C.ar        1 UNL1     -0.0198
     23 C         -5.913566   -3.82247   3.799141 C.ar        1 UNL1     -0.0516
     24 O         -7.440807   -7.015955   2.8421 O.3        1 UNL1     -0.5068
     25 O         -2.985515   -2.464184   5.617588 O.2        1 UNL1     -0.2917
     26 O         -0.595072   -3.651784   5.238227 O.3        1 UNL1     -0.5058
     27 O         2.199608   -1.283553   0.253274 O.3        1 UNL1     -0.3648
     28 O         -0.451243   -0.283389   -1.98164 O.3        1 UNL1     -0.3841
     29 O         -1.271556   -1.816478   1.153256 O.3        1 UNL1     -0.3863
     30 O         -1.305449   -3.208076   -2.2471 O.3        1 UNL1     -0.3829
     31 H         1.865991   -0.90082   -1.675508 H        1 UNL1     0.0937
     32 H         0.0   0.0   0.0 H        1 UNL1     0.0671
     33 H         -2.099574   -1.442922   -0.651898 H        1 UNL1     0.0649
     34 H         -1.618859   -3.924818   -0.349735 H        1 UNL1     0.0683
     35 H         0.522205   -4.641325   -1.307186 H        1 UNL1     0.1085
     36 H         1.061868   -4.273332   3.400963 H        1 UNL1     0.0691
     37 H         -1.417345   -2.980602   0.112719 H        1 UNL1     0.0691
     38 H         -3.72025   -0.48455   3.611143 H        1 UNL1     0.0385
     39 H         -4.964827   -1.421235   4.460961 H        1 UNL1     0.0385
     40 H         -5.215582   -1.461775   1.95002 H        1 UNL1     0.0789
     41 H         -4.812573   -4.144949   0.593119 H        1 UNL1     0.0623
     42 H         -6.093071   -6.239719   0.7787 H        1 UNL1     0.0654
     43 H         -7.160312   -5.24319   4.818169 H        1 UNL1     0.0654
     44 H         -5.874359   -3.185867   4.677801 H        1 UNL1     0.0623
     45 H         -8.355998   -6.814974   2.587641 H        1 UNL1     0.2921
     46 H         -0.47292   -4.599742   5.405163 H        1 UNL1     0.2922
     47 H         2.309932   -2.121985   0.723084 H        1 UNL1     0.2126
     48 H         -0.300633   -0.980295   -2.649001 H        1 UNL1     0.2101
     49 H         -0.453624   -1.490579   1.561388 H        1 UNL1     0.2100
     50 H         -2.090118   -2.631043   -2.352175 H        1 UNL1     0.2102
@<TRIPOS>BOND
     1     1     2    1
     2     1     6    1
     3     2     3    1
     4     3     4    1
     5     3    29    1
     6     3    33    1
     7     4     5    1
     8     5     6    1
     9     5     7    1
    10     5    35    1
    11     7     8    1
    12     8     9   ar
    13     8    13   ar
    14     9    10   ar
    15     9    36    1
    16    10    11   ar
    17    10    26    1
    18    11    12   ar
    19    11    14    1
    20    12    13   ar
    21    12    17    1
    22    13    37    1
    23    14    15    1
    24    14    25    2
    25    15    16    1
    26    15    38    1
    27    15    39    1
    28    16    17    1
    29    16    18    1
    30    16    40    1
    31    18    19   ar
    32    18    23   ar
    33    19    20   ar
    34    19    41    1
    35    20    21   ar
    36    20    42    1
    37    21    22   ar
    38    21    24    1
    39    22    23   ar
    40    22    43    1
    41    23    44    1
    42    24    45    1
    43    26    46    1
    44    27    47    1
    45    28    48    1
    46    29    49    1
    47    30    50    1
    48     1    31    1
    49     1    27    1
    50     2    32    1
    51     2    28    1
    52     4    34    1
    53     4    30    1
