@<TRIPOS>MOLECULE
*****
 50 53 0 0 0
SMALL
GASTEIGER

@<TRIPOS>ATOM
     1 C         -0.012293   -0.357693   2.154695 C.3        1 UNL1     0.1889
     2 C         -0.733483   -0.053485   0.814067 C.3        1 UNL1     0.1342
     3 C         -1.574781   1.232081   0.815816 C.3        1 UNL1     0.1174
     4 C         -2.237156   1.506059   2.168336 C.3        1 UNL1     0.1456
     5 C         -1.262394   1.336809   3.347979 C.3        1 UNL1     0.2326
     6 O         -0.705293   0.024443   3.333727 O.3        1 UNL1     -0.3076
     7 O         -0.266763   2.373411   3.422123 O.3        1 UNL1     -0.4605
     8 C         0.886742   2.159583   2.689162 C.ar        1 UNL1     0.1310
     9 C         1.380263   3.005183   1.689813 C.ar        1 UNL1     0.0226
     10 C         2.5702   2.70956   1.014122 C.ar        1 UNL1     0.1343
     11 C         3.308662   1.572264   1.338269 C.ar        1 UNL1     0.1007
     12 C         2.804811   0.698953   2.305868 C.ar        1 UNL1     0.1389
     13 C         1.606951   0.99506   2.983277 C.ar        1 UNL1     0.0229
     14 C         4.614624   1.255429   0.715185 C.2        1 UNL1     0.1740
     15 C         5.373114   0.120631   1.338463 C.3        1 UNL1     0.0520
     16 C         4.385175   -0.982432   1.692276 C.3        1 UNL1     0.1322
     17 O         3.39343   -0.502266   2.626596 O.3        1 UNL1     -0.4828
     18 C         3.809836   -1.708424   0.473816 C.ar        1 UNL1     -0.0067
     19 C         4.634282   -2.581574   -0.265176 C.ar        1 UNL1     -0.0516
     20 C         4.153691   -3.224654   -1.412104 C.ar        1 UNL1     -0.0198
     21 C         2.855754   -2.997707   -1.833628 C.ar        1 UNL1     0.1169
     22 C         2.009353   -2.169414   -1.108113 C.ar        1 UNL1     -0.0198
     23 C         2.483959   -1.540611   0.049217 C.ar        1 UNL1     -0.0516
     24 O         2.4346   -3.611959   -2.976311 O.3        1 UNL1     -0.5068
     25 O         5.104533   1.912595   -0.199477 O.2        1 UNL1     -0.2917
     26 O         2.996476   3.574773   0.049093 O.3        1 UNL1     -0.5058
     27 O         1.339706   0.071575   2.179449 O.3        1 UNL1     -0.3648
     28 O         -1.621879   -1.146418   0.515812 O.3        1 UNL1     -0.3841
     29 O         -0.808144   2.340402   0.340394 O.3        1 UNL1     -0.3863
     30 O         -3.344121   0.595846   2.346749 O.3        1 UNL1     -0.3829
     31 H         0.049558   -1.448388   2.236167 H        1 UNL1     0.0937
     32 H         0.0   0.0   0.0 H        1 UNL1     0.0671
     33 H         -2.385525   1.103277   0.085184 H        1 UNL1     0.0649
     34 H         -2.650676   2.520539   2.183578 H        1 UNL1     0.0683
     35 H         -1.906096   1.400451   4.234249 H        1 UNL1     0.1085
     36 H         0.8821   3.932944   1.430556 H        1 UNL1     0.0691
     37 H         1.235433   0.298335   3.731637 H        1 UNL1     0.0691
     38 H         5.870793   0.507329   2.234179 H        1 UNL1     0.0385
     39 H         6.144   -0.222357   0.639984 H        1 UNL1     0.0385
     40 H         4.940859   -1.747723   2.250902 H        1 UNL1     0.0789
     41 H         5.659671   -2.769237   0.039803 H        1 UNL1     0.0623
     42 H         4.802901   -3.886388   -1.980123 H        1 UNL1     0.0654
     43 H         0.986511   -1.996479   -1.420842 H        1 UNL1     0.0654
     44 H         1.792052   -0.908466   0.597397 H        1 UNL1     0.0623
     45 H         1.970969   -4.429354   -2.732123 H        1 UNL1     0.2921
     46 H         3.929344   3.794339   0.200616 H        1 UNL1     0.2922
     47 H         1.878063   -0.483951   1.598568 H        1 UNL1     0.2126
     48 H         -1.463192   -1.829353   1.195629 H        1 UNL1     0.2101
     49 H         0.093784   2.294425   0.695649 H        1 UNL1     0.2100
     50 H         -3.537053   0.182189   1.479928 H        1 UNL1     0.2102
@<TRIPOS>BOND
     1     1     2    1
     2     1     6    1
     3     2     3    1
     4     3     4    1
     5     3    29    1
     6     3    33    1
     7     4     5    1
     8     5     6    1
     9     5     7    1
    10     5    35    1
    11     7     8    1
    12     8     9   ar
    13     8    13   ar
    14     9    10   ar
    15     9    36    1
    16    10    11   ar
    17    10    26    1
    18    11    12   ar
    19    11    14    1
    20    12    13   ar
    21    12    17    1
    22    13    37    1
    23    14    15    1
    24    14    25    2
    25    15    16    1
    26    15    38    1
    27    15    39    1
    28    16    17    1
    29    16    18    1
    30    16    40    1
    31    18    19   ar
    32    18    23   ar
    33    19    20   ar
    34    19    41    1
    35    20    21   ar
    36    20    42    1
    37    21    22   ar
    38    21    24    1
    39    22    23   ar
    40    22    43    1
    41    23    44    1
    42    24    45    1
    43    26    46    1
    44    27    47    1
    45    28    48    1
    46    29    49    1
    47    30    50    1
    48     1    31    1
    49     1    27    1
    50     2    32    1
    51     2    28    1
    52     4    34    1
    53     4    30    1
