@<TRIPOS>MOLECULE
*****
 50 53 0 0 0
SMALL
GASTEIGER

@<TRIPOS>ATOM
     1 C         -0.340001   -1.332575   1.696894 C.3        1 UNL1     0.1889
     2 C         -0.466537   -0.974241   0.191727 C.3        1 UNL1     0.1342
     3 C         -1.906399   -0.954415   -0.343875 C.3        1 UNL1     0.1174
     4 C         -2.797895   -2.012399   0.311121 C.3        1 UNL1     0.1456
     5 C         -2.648998   -2.04331   1.843191 C.3        1 UNL1     0.2326
     6 O         -1.285551   -2.267781   2.194607 O.3        1 UNL1     -0.3076
     7 O         -3.220622   -0.896186   2.497922 O.3        1 UNL1     -0.4605
     8 C         -3.733564   -1.113866   3.764031 C.ar        1 UNL1     0.1310
     9 C         -4.5548   -2.184884   4.132534 C.ar        1 UNL1     0.0226
     10 C         -5.010788   -2.327883   5.448409 C.ar        1 UNL1     0.1343
     11 C         -4.636742   -1.415472   6.434023 C.ar        1 UNL1     0.1007
     12 C         -3.850609   -0.31923   6.069286 C.ar        1 UNL1     0.1389
     13 C         -3.394416   -0.174222   4.745544 C.ar        1 UNL1     0.0229
     14 C         -5.020651   -1.564558   7.856887 C.2        1 UNL1     0.1740
     15 C         -4.349808   -0.622114   8.812563 C.3        1 UNL1     0.0520
     16 C         -4.273926   0.751764   8.160906 C.3        1 UNL1     0.1322
     17 O         -3.513266   0.696043   6.933974 O.3        1 UNL1     -0.4828
     18 C         -5.630224   1.449901   8.035271 C.ar        1 UNL1     -0.0067
     19 C         -6.003607   2.020759   6.801205 C.ar        1 UNL1     -0.0516
     20 C         -7.215939   2.707527   6.664954 C.ar        1 UNL1     -0.0198
     21 C         -8.058335   2.836405   7.754719 C.ar        1 UNL1     0.1169
     22 C         -7.733728   2.256419   8.97418 C.ar        1 UNL1     -0.0198
     23 C         -6.529986   1.553756   9.105803 C.ar        1 UNL1     -0.0516
     24 O         -9.212943   3.544565   7.594128 O.3        1 UNL1     -0.5068
     25 O         -5.773647   -2.444689   8.265361 O.2        1 UNL1     -0.2917
     26 O         -5.809822   -3.394075   5.74229 O.3        1 UNL1     -0.5058
     27 O         -0.231739   -0.19751   2.541106 O.3        1 UNL1     -0.3648
     28 O         0.261515   -1.952998   -0.572917 O.3        1 UNL1     -0.3841
     29 O         -2.458895   0.361092   -0.26437 O.3        1 UNL1     -0.3863
     30 O         -2.454477   -3.312821   -0.214862 O.3        1 UNL1     -0.3829
     31 H         0.618474   -1.849533   1.815886 H        1 UNL1     0.0937
     32 H         0.0   0.0   0.0 H        1 UNL1     0.0671
     33 H         -1.868482   -1.19061   -1.416486 H        1 UNL1     0.0649
     34 H         -3.846882   -1.829171   0.053333 H        1 UNL1     0.0683
     35 H         -3.207689   -2.938017   2.145256 H        1 UNL1     0.1085
     36 H         -4.834962   -2.958135   3.42563 H        1 UNL1     0.0691
     37 H         -2.784513   0.688705   4.486957 H        1 UNL1     0.0691
     38 H         -3.349381   -1.016856   9.019573 H        1 UNL1     0.0385
     39 H         -4.911649   -0.604009   9.752662 H        1 UNL1     0.0385
     40 H         -3.67772   1.392405   8.82471 H        1 UNL1     0.0789
     41 H         -5.355609   1.941289   5.933199 H        1 UNL1     0.0623
     42 H         -7.487122   3.153549   5.711258 H        1 UNL1     0.0654
     43 H         -8.393085   2.338375   9.830009 H        1 UNL1     0.0654
     44 H         -6.313279   1.104399   10.070148 H        1 UNL1     0.0623
     45 H         -8.982643   4.454128   7.344383 H        1 UNL1     0.2921
     46 H         -5.409295   -3.91059   6.45937 H        1 UNL1     0.2922
     47 H         0.513842   0.354257   2.266294 H        1 UNL1     0.2126
     48 H         1.195166   -1.887777   -0.294037 H        1 UNL1     0.2101
     49 H         -2.016815   0.9438   -0.902188 H        1 UNL1     0.2100
     50 H         -2.686166   -3.323873   -1.166656 H        1 UNL1     0.2102
@<TRIPOS>BOND
     1     1     2    1
     2     1     6    1
     3     2     3    1
     4     3     4    1
     5     3    29    1
     6     3    33    1
     7     4     5    1
     8     5     6    1
     9     5     7    1
    10     5    35    1
    11     7     8    1
    12     8     9   ar
    13     8    13   ar
    14     9    10   ar
    15     9    36    1
    16    10    11   ar
    17    10    26    1
    18    11    12   ar
    19    11    14    1
    20    12    13   ar
    21    12    17    1
    22    13    37    1
    23    14    15    1
    24    14    25    2
    25    15    16    1
    26    15    38    1
    27    15    39    1
    28    16    17    1
    29    16    18    1
    30    16    40    1
    31    18    19   ar
    32    18    23   ar
    33    19    20   ar
    34    19    41    1
    35    20    21   ar
    36    20    42    1
    37    21    22   ar
    38    21    24    1
    39    22    23   ar
    40    22    43    1
    41    23    44    1
    42    24    45    1
    43    26    46    1
    44    27    47    1
    45    28    48    1
    46    29    49    1
    47    30    50    1
    48     1    31    1
    49     1    27    1
    50     2    32    1
    51     2    28    1
    52     4    34    1
    53     4    30    1
