@<TRIPOS>MOLECULE
*****
 50 53 0 0 0
SMALL
GASTEIGER

@<TRIPOS>ATOM
     1 C         -0.225778   -1.537976   1.534424 C.3        1 UNL1     0.1889
     2 C         -0.813395   -0.504647   0.535987 C.3        1 UNL1     0.1342
     3 C         -1.726826   0.554181   1.172377 C.3        1 UNL1     0.1174
     4 C         -2.548521   0.00418   2.340895 C.3        1 UNL1     0.1456
     5 C         -1.699983   -0.82937   3.318413 C.3        1 UNL1     0.2326
     6 O         -1.06551   -1.898995   2.621122 O.3        1 UNL1     -0.3076
     7 O         -0.783634   -0.040223   4.098715 O.3        1 UNL1     -0.4605
     8 C         0.049596   -0.743724   4.949798 C.ar        1 UNL1     0.1310
     9 C         0.095724   -2.136804   5.070211 C.ar        1 UNL1     0.0226
     10 C         0.98912   -2.75791   5.951104 C.ar        1 UNL1     0.1343
     11 C         1.875498   -2.001161   6.716288 C.ar        1 UNL1     0.1007
     12 C         1.810562   -0.60762   6.634974 C.ar        1 UNL1     0.1389
     13 C         0.910346   0.016749   5.751116 C.ar        1 UNL1     0.0229
     14 C         2.897235   -2.608227   7.600413 C.2        1 UNL1     0.1740
     15 C         3.907609   -1.658046   8.172995 C.3        1 UNL1     0.0520
     16 C         3.19141   -0.374179   8.568847 C.3        1 UNL1     0.1322
     17 O         2.560622   0.235869   7.421233 O.3        1 UNL1     -0.4828
     18 C         2.278054   -0.528685   9.787302 C.ar        1 UNL1     -0.0067
     19 C         1.916197   0.613435   10.530831 C.ar        1 UNL1     -0.0516
     20 C         1.12131   0.501698   11.677841 C.ar        1 UNL1     -0.0198
     21 C         0.689009   -0.744485   12.094939 C.ar        1 UNL1     0.1169
     22 C         1.001001   -1.884039   11.364927 C.ar        1 UNL1     -0.0198
     23 C         1.780496   -1.770553   10.207532 C.ar        1 UNL1     -0.0516
     24 O         -0.051796   -0.818275   13.237814 O.3        1 UNL1     -0.5068
     25 O         2.983639   -3.816395   7.803757 O.2        1 UNL1     -0.2917
     26 O         0.983185   -4.120447   6.02211 O.3        1 UNL1     -0.5058
     27 O         1.086646   -1.2204   1.96971 O.3        1 UNL1     -0.3648
     28 O         -1.595422   -1.211543   -0.444542 O.3        1 UNL1     -0.3841
     29 O         -0.982002   1.72281   1.521197 O.3        1 UNL1     -0.3863
     30 O         -3.610648   -0.826479   1.823613 O.3        1 UNL1     -0.3829
     31 H         -0.106664   -2.475507   0.980415 H        1 UNL1     0.0937
     32 H         0.0   0.0   0.0 H        1 UNL1     0.0671
     33 H         -2.443485   0.882695   0.406741 H        1 UNL1     0.0649
     34 H         -3.022447   0.828343   2.885459 H        1 UNL1     0.0683
     35 H         -2.439352   -1.281465   3.991334 H        1 UNL1     0.1085
     36 H         -0.528276   -2.782666   4.462258 H        1 UNL1     0.0691
     37 H         0.878631   1.103289   5.707313 H        1 UNL1     0.0691
     38 H         4.659504   -1.468484   7.399531 H        1 UNL1     0.0385
     39 H         4.405505   -2.13391   9.024718 H        1 UNL1     0.0385
     40 H         3.96277   0.346095   8.873362 H        1 UNL1     0.0789
     41 H         2.250423   1.601901   10.22937 H        1 UNL1     0.0623
     42 H         0.858929   1.388558   12.249372 H        1 UNL1     0.0654
     43 H         0.655147   -2.863149   11.674182 H        1 UNL1     0.0654
     44 H         1.996277   -2.680419   9.655782 H        1 UNL1     0.0623
     45 H         -0.975953   -0.988869   12.993787 H        1 UNL1     0.2921
     46 H         0.183695   -4.463318   5.592379 H        1 UNL1     0.2922
     47 H         1.263403   -0.278098   1.840545 H        1 UNL1     0.2126
     48 H         -2.360444   -1.591493   0.028863 H        1 UNL1     0.2101
     49 H         -1.275004   2.055413   2.384516 H        1 UNL1     0.2100
     50 H         -3.261995   -1.313879   1.048632 H        1 UNL1     0.2102
@<TRIPOS>BOND
     1     1     2    1
     2     1     6    1
     3     2     3    1
     4     3     4    1
     5     3    29    1
     6     3    33    1
     7     4     5    1
     8     5     6    1
     9     5     7    1
    10     5    35    1
    11     7     8    1
    12     8     9   ar
    13     8    13   ar
    14     9    10   ar
    15     9    36    1
    16    10    11   ar
    17    10    26    1
    18    11    12   ar
    19    11    14    1
    20    12    13   ar
    21    12    17    1
    22    13    37    1
    23    14    15    1
    24    14    25    2
    25    15    16    1
    26    15    38    1
    27    15    39    1
    28    16    17    1
    29    16    18    1
    30    16    40    1
    31    18    19   ar
    32    18    23   ar
    33    19    20   ar
    34    19    41    1
    35    20    21   ar
    36    20    42    1
    37    21    22   ar
    38    21    24    1
    39    22    23   ar
    40    22    43    1
    41    23    44    1
    42    24    45    1
    43    26    46    1
    44    27    47    1
    45    28    48    1
    46    29    49    1
    47    30    50    1
    48     1    31    1
    49     1    27    1
    50     2    32    1
    51     2    28    1
    52     4    34    1
    53     4    30    1
