@<TRIPOS>MOLECULE
*****
 50 53 0 0 0
SMALL
GASTEIGER

@<TRIPOS>ATOM
     1 C         0.921555   0.041502   1.979853 C.3        1 UNL1     0.1889
     2 C         -0.320609   0.022019   1.048946 C.3        1 UNL1     0.1342
     3 C         -1.292172   1.194844   1.25146 C.3        1 UNL1     0.1174
     4 C         -1.385902   1.642427   2.712282 C.3        1 UNL1     0.1456
     5 C         -0.003711   1.790157   3.374164 C.3        1 UNL1     0.2326
     6 O         0.711869   0.560172   3.285 O.3        1 UNL1     -0.3076
     7 O         0.746864   2.917977   2.888386 O.3        1 UNL1     -0.4605
     8 C         1.600223   3.515611   3.798407 C.ar        1 UNL1     0.1310
     9 C         1.276522   3.841085   5.119991 C.ar        1 UNL1     0.0226
     10 C         2.21833   4.430687   5.971618 C.ar        1 UNL1     0.1343
     11 C         3.51522   4.687562   5.528976 C.ar        1 UNL1     0.1007
     12 C         3.838151   4.404678   4.199136 C.ar        1 UNL1     0.1389
     13 C         2.890203   3.814271   3.342255 C.ar        1 UNL1     0.0229
     14 C         4.574086   5.23152   6.41049 C.2        1 UNL1     0.1740
     15 C         5.959837   5.234759   5.834961 C.3        1 UNL1     0.0520
     16 C         5.87248   5.642876   4.370801 C.3        1 UNL1     0.1322
     17 O         5.050415   4.715628   3.628178 O.3        1 UNL1     -0.4828
     18 C         5.51395   7.116187   4.162146 C.ar        1 UNL1     -0.0067
     19 C         4.491935   7.458175   3.252892 C.ar        1 UNL1     -0.0516
     20 C         4.171322   8.797888   3.003218 C.ar        1 UNL1     -0.0198
     21 C         4.868765   9.802766   3.649455 C.ar        1 UNL1     0.1169
     22 C         5.857712   9.49691   4.575347 C.ar        1 UNL1     -0.0198
     23 C         6.165966   8.156936   4.838985 C.ar        1 UNL1     -0.0516
     24 O         4.554399   11.096401   3.352668 O.3        1 UNL1     -0.5068
     25 O         4.372802   5.587844   7.568507 O.2        1 UNL1     -0.2917
     26 O         1.838837   4.72451   7.248818 O.3        1 UNL1     -0.5058
     27 O         2.074534   0.602257   1.372416 O.3        1 UNL1     -0.3648
     28 O         -1.05608   -1.190913   1.295087 O.3        1 UNL1     -0.3841
     29 O         -0.981994   2.269577   0.362151 O.3        1 UNL1     -0.3863
     30 O         -2.155526   0.67301   3.456324 O.3        1 UNL1     -0.3829
     31 H         1.193514   -1.004193   2.16052 H        1 UNL1     0.0937
     32 H         0.0   0.0   -0.0 H        1 UNL1     0.0671
     33 H         -2.295027   0.853954   0.958551 H        1 UNL1     0.0649
     34 H         -1.921952   2.595723   2.777685 H        1 UNL1     0.0683
     35 H         -0.234085   1.948947   4.435104 H        1 UNL1     0.1085
     36 H         0.302741   3.615475   5.540672 H        1 UNL1     0.0691
     37 H         3.166189   3.604874   2.311004 H        1 UNL1     0.0691
     38 H         6.364146   4.22225   5.939301 H        1 UNL1     0.0385
     39 H         6.588996   5.91605   6.417867 H        1 UNL1     0.0385
     40 H         6.876489   5.524487   3.941302 H        1 UNL1     0.0789
     41 H         3.935971   6.688098   2.726074 H        1 UNL1     0.0623
     42 H         3.389263   9.049021   2.290949 H        1 UNL1     0.0654
     43 H         6.399831   10.275738   5.098266 H        1 UNL1     0.0654
     44 H         6.936944   7.95429   5.576123 H        1 UNL1     0.0623
     45 H         4.719186   11.242877   2.407096 H        1 UNL1     0.2921
     46 H         2.436402   4.283761   7.873372 H        1 UNL1     0.2922
     47 H         2.279568   0.136529   0.549666 H        1 UNL1     0.2126
     48 H         -0.45809   -1.930486   1.073338 H        1 UNL1     0.2101
     49 H         -1.189975   2.013258   -0.550449 H        1 UNL1     0.2100
     50 H         -3.07352   0.69045   3.114716 H        1 UNL1     0.2102
@<TRIPOS>BOND
     1     1     2    1
     2     1     6    1
     3     2     3    1
     4     3     4    1
     5     3    29    1
     6     3    33    1
     7     4     5    1
     8     5     6    1
     9     5     7    1
    10     5    35    1
    11     7     8    1
    12     8     9   ar
    13     8    13   ar
    14     9    10   ar
    15     9    36    1
    16    10    11   ar
    17    10    26    1
    18    11    12   ar
    19    11    14    1
    20    12    13   ar
    21    12    17    1
    22    13    37    1
    23    14    15    1
    24    14    25    2
    25    15    16    1
    26    15    38    1
    27    15    39    1
    28    16    17    1
    29    16    18    1
    30    16    40    1
    31    18    19   ar
    32    18    23   ar
    33    19    20   ar
    34    19    41    1
    35    20    21   ar
    36    20    42    1
    37    21    22   ar
    38    21    24    1
    39    22    23   ar
    40    22    43    1
    41    23    44    1
    42    24    45    1
    43    26    46    1
    44    27    47    1
    45    28    48    1
    46    29    49    1
    47    30    50    1
    48     1    31    1
    49     1    27    1
    50     2    32    1
    51     2    28    1
    52     4    34    1
    53     4    30    1
