@<TRIPOS>MOLECULE
*****
 50 53 0 0 0
SMALL
GASTEIGER

@<TRIPOS>ATOM
     1 C         -0.335236   -1.330369   1.69957 C.3        1 UNL1     0.1889
     2 C         -0.464016   -0.975017   0.193887 C.3        1 UNL1     0.1342
     3 C         -1.904413   -0.959603   -0.34042 C.3        1 UNL1     0.1174
     4 C         -2.792761   -2.018561   0.317276 C.3        1 UNL1     0.1456
     5 C         -2.642382   -2.04639   1.84926 C.3        1 UNL1     0.2326
     6 O         -1.278077   -2.266959   2.199816 O.3        1 UNL1     -0.3076
     7 O         -3.216161   -0.899481   2.502481 O.3        1 UNL1     -0.4605
     8 C         -3.727415   -1.116142   3.769448 C.ar        1 UNL1     0.1310
     9 C         -4.716023   -2.050857   4.095427 C.ar        1 UNL1     0.0226
     10 C         -5.15674   -2.207816   5.414909 C.ar        1 UNL1     0.1343
     11 C         -4.601993   -1.449728   6.445151 C.ar        1 UNL1     0.1007
     12 C         -3.64335   -0.484376   6.12596 C.ar        1 UNL1     0.1389
     13 C         -3.202274   -0.324904   4.798763 C.ar        1 UNL1     0.0229
     14 C         -4.970173   -1.633127   7.868163 C.2        1 UNL1     0.1740
     15 C         -4.118861   -0.895338   8.859366 C.3        1 UNL1     0.0520
     16 C         -3.816981   0.488016   8.29976 C.3        1 UNL1     0.1322
     17 O         -3.109523   0.389993   7.043988 O.3        1 UNL1     -0.4828
     18 C         -5.030672   1.420198   8.273026 C.ar        1 UNL1     -0.0067
     19 C         -5.327945   2.136492   7.095417 C.ar        1 UNL1     -0.0516
     20 C         -6.402284   3.033077   7.051885 C.ar        1 UNL1     -0.0198
     21 C         -7.180645   3.227291   8.178944 C.ar        1 UNL1     0.1169
     22 C         -6.933348   2.511648   9.343219 C.ar        1 UNL1     -0.0198
     23 C         -5.870395   1.601301   9.381386 C.ar        1 UNL1     -0.0516
     24 O         -8.195016   4.136552   8.110411 O.3        1 UNL1     -0.5068
     25 O         -5.856777   -2.395306   8.244328 O.2        1 UNL1     -0.2917
     26 O         -6.124536   -3.136213   5.665978 O.3        1 UNL1     -0.5058
     27 O         -0.228929   -0.193548   2.541665 O.3        1 UNL1     -0.3648
     28 O         0.265683   -1.953379   -0.56969 O.3        1 UNL1     -0.3841
     29 O         -2.459998   0.354712   -0.262741 O.3        1 UNL1     -0.3863
     30 O         -2.446701   -3.319086   -0.206714 O.3        1 UNL1     -0.3829
     31 H         0.624588   -1.844811   1.818595 H        1 UNL1     0.0937
     32 H         0.0   0.0   0.0 H        1 UNL1     0.0671
     33 H         -1.866914   -1.197613   -1.412644 H        1 UNL1     0.0649
     34 H         -3.842422   -1.838312   0.060132 H        1 UNL1     0.0683
     35 H         -3.198642   -2.941899   2.153429 H        1 UNL1     0.1085
     36 H         -5.146676   -2.709181   3.348923 H        1 UNL1     0.0691
     37 H         -2.455711   0.434463   4.57628 H        1 UNL1     0.0691
     38 H         -3.19941   -1.473278   9.001215 H        1 UNL1     0.0385
     39 H         -4.644639   -0.848049   9.819106 H        1 UNL1     0.0385
     40 H         -3.100009   0.96395   8.982371 H        1 UNL1     0.0789
     41 H         -4.726467   2.008583   6.200143 H        1 UNL1     0.0623
     42 H         -6.614068   3.588363   6.141491 H        1 UNL1     0.0654
     43 H         -7.545867   2.644878   10.22695 H        1 UNL1     0.0654
     44 H         -5.712528   1.051501   10.304231 H        1 UNL1     0.0623
     45 H         -7.813418   5.007541   7.914253 H        1 UNL1     0.2921
     46 H         -5.803986   -3.766025   6.330806 H        1 UNL1     0.2922
     47 H         0.51338   0.360936   2.263486 H        1 UNL1     0.2126
     48 H         1.198478   -1.889327   -0.287692 H        1 UNL1     0.2101
     49 H         -2.019907   0.937345   -0.902 H        1 UNL1     0.2100
     50 H         -2.679236   -3.332386   -1.158272 H        1 UNL1     0.2102
@<TRIPOS>BOND
     1     1     2    1
     2     1     6    1
     3     2     3    1
     4     3     4    1
     5     3    29    1
     6     3    33    1
     7     4     5    1
     8     5     6    1
     9     5     7    1
    10     5    35    1
    11     7     8    1
    12     8     9   ar
    13     8    13   ar
    14     9    10   ar
    15     9    36    1
    16    10    11   ar
    17    10    26    1
    18    11    12   ar
    19    11    14    1
    20    12    13   ar
    21    12    17    1
    22    13    37    1
    23    14    15    1
    24    14    25    2
    25    15    16    1
    26    15    38    1
    27    15    39    1
    28    16    17    1
    29    16    18    1
    30    16    40    1
    31    18    19   ar
    32    18    23   ar
    33    19    20   ar
    34    19    41    1
    35    20    21   ar
    36    20    42    1
    37    21    22   ar
    38    21    24    1
    39    22    23   ar
    40    22    43    1
    41    23    44    1
    42    24    45    1
    43    26    46    1
    44    27    47    1
    45    28    48    1
    46    29    49    1
    47    30    50    1
    48     1    31    1
    49     1    27    1
    50     2    32    1
    51     2    28    1
    52     4    34    1
    53     4    30    1
