@<TRIPOS>MOLECULE
*****
 50 53 0 0 0
SMALL
GASTEIGER

@<TRIPOS>ATOM
     1 C         -0.347952   -1.337404   1.691474 C.3        1 UNL1     0.1889
     2 C         -0.470339   -0.973262   0.187359 C.3        1 UNL1     0.1342
     3 C         -1.909093   -0.946435   -0.350908 C.3        1 UNL1     0.1174
     4 C         -2.805572   -2.003588   0.298608 C.3        1 UNL1     0.1456
     5 C         -2.659719   -2.040487   1.830838 C.3        1 UNL1     0.2326
     6 O         -1.297748   -2.271029   2.184044 O.3        1 UNL1     -0.3076
     7 O         -3.228543   -0.893689   2.488573 O.3        1 UNL1     -0.4605
     8 C         -3.751469   -1.115672   3.749842 C.ar        1 UNL1     0.1310
     9 C         -4.58194   -2.183636   4.106314 C.ar        1 UNL1     0.0226
     10 C         -5.047782   -2.331599   5.418183 C.ar        1 UNL1     0.1343
     11 C         -4.674713   -1.42749   6.411785 C.ar        1 UNL1     0.1007
     12 C         -3.879211   -0.334102   6.058993 C.ar        1 UNL1     0.1389
     13 C         -3.413097   -0.184085   4.739271 C.ar        1 UNL1     0.0229
     14 C         -5.069247   -1.582637   7.83109 C.2        1 UNL1     0.1740
     15 C         -4.399001   -0.650202   8.79695 C.3        1 UNL1     0.0520
     16 C         -4.310011   0.727037   8.154105 C.3        1 UNL1     0.1322
     17 O         -3.54137   0.673821   6.932045 O.3        1 UNL1     -0.4828
     18 C         -5.660989   1.434512   8.023483 C.ar        1 UNL1     -0.0067
     19 C         -6.015973   2.028054   6.7947 C.ar        1 UNL1     -0.0516
     20 C         -7.222923   2.723563   6.655056 C.ar        1 UNL1     -0.0198
     21 C         -8.078169   2.838649   7.736323 C.ar        1 UNL1     0.1169
     22 C         -7.771823   2.23649   8.949746 C.ar        1 UNL1     -0.0198
     23 C         -6.573485   1.525214   9.084388 C.ar        1 UNL1     -0.0516
     24 O         -9.226988   3.555642   7.573421 O.3        1 UNL1     -0.5068
     25 O         -5.83055   -2.460394   8.229144 O.2        1 UNL1     -0.2917
     26 O         -5.855513   -3.394432   5.700216 O.3        1 UNL1     -0.5058
     27 O         -0.237302   -0.205746   2.539939 O.3        1 UNL1     -0.3648
     28 O         0.255716   -1.951856   -0.57939 O.3        1 UNL1     -0.3841
     29 O         -2.457095   0.370726   -0.267757 O.3        1 UNL1     -0.3863
     30 O         -2.46574   -3.303333   -0.231362 O.3        1 UNL1     -0.3829
     31 H         0.608463   -1.85817   1.810443 H        1 UNL1     0.0937
     32 H         0.0   0.0   0.0 H        1 UNL1     0.0671
     33 H         -1.869956   -1.178938   -1.424281 H        1 UNL1     0.0649
     34 H         -3.85341   -1.815734   0.03948 H        1 UNL1     0.0683
     35 H         -3.222142   -2.934283   2.128642 H        1 UNL1     0.1085
     36 H         -4.86215   -2.950853   3.392885 H        1 UNL1     0.0691
     37 H         -2.796012   0.676482   4.490025 H        1 UNL1     0.0691
     38 H         -3.40252   -1.05252   9.008356 H        1 UNL1     0.0385
     39 H         -4.967113   -0.634149   9.733309 H        1 UNL1     0.0385
     40 H         -3.714313   1.3599   8.825781 H        1 UNL1     0.0789
     41 H         -5.357617   1.95969   5.933571 H        1 UNL1     0.0623
     42 H         -7.479864   3.187021   5.705741 H        1 UNL1     0.0654
     43 H         -8.441371   2.307605   9.798602 H        1 UNL1     0.0654
     44 H         -6.371166   1.058536   10.043619 H        1 UNL1     0.0623
     45 H         -8.988828   4.468701   7.344683 H        1 UNL1     0.2921
     46 H         -5.463843   -3.916982   6.417814 H        1 UNL1     0.2922
     47 H         0.504849   0.349371   2.262599 H        1 UNL1     0.2126
     48 H         1.191393   -1.881165   -0.308756 H        1 UNL1     0.2101
     49 H         -2.017462   0.952122   -0.908456 H        1 UNL1     0.2100
     50 H         -2.701206   -3.312188   -1.182251 H        1 UNL1     0.2102
@<TRIPOS>BOND
     1     1     2    1
     2     1     6    1
     3     2     3    1
     4     3     4    1
     5     3    29    1
     6     3    33    1
     7     4     5    1
     8     5     6    1
     9     5     7    1
    10     5    35    1
    11     7     8    1
    12     8     9   ar
    13     8    13   ar
    14     9    10   ar
    15     9    36    1
    16    10    11   ar
    17    10    26    1
    18    11    12   ar
    19    11    14    1
    20    12    13   ar
    21    12    17    1
    22    13    37    1
    23    14    15    1
    24    14    25    2
    25    15    16    1
    26    15    38    1
    27    15    39    1
    28    16    17    1
    29    16    18    1
    30    16    40    1
    31    18    19   ar
    32    18    23   ar
    33    19    20   ar
    34    19    41    1
    35    20    21   ar
    36    20    42    1
    37    21    22   ar
    38    21    24    1
    39    22    23   ar
    40    22    43    1
    41    23    44    1
    42    24    45    1
    43    26    46    1
    44    27    47    1
    45    28    48    1
    46    29    49    1
    47    30    50    1
    48     1    31    1
    49     1    27    1
    50     2    32    1
    51     2    28    1
    52     4    34    1
    53     4    30    1
