@<TRIPOS>MOLECULE
*****
 50 53 0 0 0
SMALL
GASTEIGER

@<TRIPOS>ATOM
     1 C         1.469325   -1.324981   -0.925372 C.3        1 UNL1     0.1889
     2 C         0.699258   -0.786343   0.310268 C.3        1 UNL1     0.1342
     3 C         1.592822   -0.246157   1.437303 C.3        1 UNL1     0.1174
     4 C         2.903627   -1.02372   1.579781 C.3        1 UNL1     0.1456
     5 C         3.597141   -1.264494   0.226478 C.3        1 UNL1     0.2326
     6 O         2.71427   -1.952833   -0.65647 O.3        1 UNL1     -0.3076
     7 O         4.157781   -0.071207   -0.350645 O.3        1 UNL1     -0.4605
     8 C         5.184873   -0.261241   -1.257562 C.ar        1 UNL1     0.1310
     9 C         6.272315   -1.123627   -1.081321 C.ar        1 UNL1     0.0226
     10 C         7.255456   -1.259794   -2.068638 C.ar        1 UNL1     0.1343
     11 C         7.162326   -0.554029   -3.267414 C.ar        1 UNL1     0.1007
     12 C         6.102825   0.341053   -3.437917 C.ar        1 UNL1     0.1389
     13 C         5.115826   0.479769   -2.443924 C.ar        1 UNL1     0.0229
     14 C         8.127428   -0.722847   -4.378374 C.2        1 UNL1     0.1740
     15 C         7.752515   -0.058787   -5.670664 C.3        1 UNL1     0.0520
     16 C         7.150632   1.303665   -5.355357 C.3        1 UNL1     0.1322
     17 O         5.972058   1.165343   -4.531403 O.3        1 UNL1     -0.4828
     18 C         8.169347   2.322824   -4.839353 C.ar        1 UNL1     -0.0067
     19 C         8.43241   3.483113   -5.596149 C.ar        1 UNL1     -0.0516
     20 C         9.392345   4.411908   -5.176828 C.ar        1 UNL1     -0.0198
     21 C         10.099576   4.188713   -4.008994 C.ar        1 UNL1     0.1169
     22 C         9.839297   3.072304   -3.22495 C.ar        1 UNL1     -0.0198
     23 C         8.866369   2.152677   -3.634527 C.ar        1 UNL1     -0.0516
     24 O         11.053315   5.096093   -3.652003 O.3        1 UNL1     -0.5068
     25 O         9.134669   -1.421136   -4.298737 O.2        1 UNL1     -0.2917
     26 O         8.291017   -2.116726   -1.834405 O.3        1 UNL1     -0.5058
     27 O         1.575151   -0.382524   -1.980532 O.3        1 UNL1     -0.3648
     28 O         -0.084916   -1.859975   0.862617 O.3        1 UNL1     -0.3841
     29 O         1.796875   1.160788   1.292384 O.3        1 UNL1     -0.3863
     30 O         2.631989   -2.301353   2.195863 O.3        1 UNL1     -0.3829
     31 H         0.86053   -2.13299   -1.345573 H        1 UNL1     0.0937
     32 H         0.0   0.0   0.0 H        1 UNL1     0.0671
     33 H         1.047745   -0.365936   2.384015 H        1 UNL1     0.0649
     34 H         3.587188   -0.485578   2.245776 H        1 UNL1     0.0683
     35 H         4.41262   -1.958103   0.466849 H        1 UNL1     0.1085
     36 H         6.372297   -1.741628   -0.195771 H        1 UNL1     0.0691
     37 H         4.301681   1.184152   -2.600466 H        1 UNL1     0.0691
     38 H         7.026084   -0.704084   -6.176053 H        1 UNL1     0.0385
     39 H         8.641604   0.018279   -6.30577 H        1 UNL1     0.0385
     40 H         6.777236   1.719295   -6.301056 H        1 UNL1     0.0789
     41 H         7.897217   3.676648   -6.521223 H        1 UNL1     0.0623
     42 H         9.594545   5.296776   -5.775271 H        1 UNL1     0.0654
     43 H         10.376669   2.895432   -2.300906 H        1 UNL1     0.0654
     44 H         8.681513   1.297113   -2.992122 H        1 UNL1     0.0623
     45 H         11.23393   5.667747   -4.415748 H        1 UNL1     0.2921
     46 H         7.992491   -2.833566   -1.252653 H        1 UNL1     0.2922
     47 H         1.957709   -0.799767   -2.765018 H        1 UNL1     0.2126
     48 H         0.135724   -2.660568   0.34871 H        1 UNL1     0.2101
     49 H         1.039697   1.643682   1.6602 H        1 UNL1     0.2100
     50 H         3.426208   -2.864182   2.085627 H        1 UNL1     0.2102
@<TRIPOS>BOND
     1     1     2    1
     2     1     6    1
     3     2     3    1
     4     3     4    1
     5     3    29    1
     6     3    33    1
     7     4     5    1
     8     5     6    1
     9     5     7    1
    10     5    35    1
    11     7     8    1
    12     8     9   ar
    13     8    13   ar
    14     9    10   ar
    15     9    36    1
    16    10    11   ar
    17    10    26    1
    18    11    12   ar
    19    11    14    1
    20    12    13   ar
    21    12    17    1
    22    13    37    1
    23    14    15    1
    24    14    25    2
    25    15    16    1
    26    15    38    1
    27    15    39    1
    28    16    17    1
    29    16    18    1
    30    16    40    1
    31    18    19   ar
    32    18    23   ar
    33    19    20   ar
    34    19    41    1
    35    20    21   ar
    36    20    42    1
    37    21    22   ar
    38    21    24    1
    39    22    23   ar
    40    22    43    1
    41    23    44    1
    42    24    45    1
    43    26    46    1
    44    27    47    1
    45    28    48    1
    46    29    49    1
    47    30    50    1
    48     1    31    1
    49     1    27    1
    50     2    32    1
    51     2    28    1
    52     4    34    1
    53     4    30    1
