@<TRIPOS>MOLECULE
*****
 50 53 0 0 0
SMALL
GASTEIGER

@<TRIPOS>ATOM
     1 C         -0.468267   -1.530112   1.486704 C.3        1 UNL1     0.1889
     2 C         -0.394676   -1.023398   0.021178 C.3        1 UNL1     0.1342
     3 C         -1.729688   -1.061437   -0.738269 C.3        1 UNL1     0.1174
     4 C         -2.60573   -2.251617   -0.339346 C.3        1 UNL1     0.1456
     5 C         -2.692975   -2.434962   1.186805 C.3        1 UNL1     0.2326
     6 O         -1.384975   -2.586046   1.733778 O.3        1 UNL1     -0.3076
     7 O         -3.466493   -1.414286   1.843472 O.3        1 UNL1     -0.4605
     8 C         -4.154564   -1.809857   2.976437 C.ar        1 UNL1     0.1310
     9 C         -4.918884   -2.975684   3.094601 C.ar        1 UNL1     0.0226
     10 C         -5.566182   -3.29833   4.29327 C.ar        1 UNL1     0.1343
     11 C         -5.445221   -2.474157   5.41128 C.ar        1 UNL1     0.1007
     12 C         -4.71839   -1.286485   5.293229 C.ar        1 UNL1     0.1389
     13 C         -4.069809   -0.960963   4.087074 C.ar        1 UNL1     0.0229
     14 C         -6.038463   -2.809054   6.726598 C.2        1 UNL1     0.1740
     15 C         -5.623999   -1.928719   7.868868 C.3        1 UNL1     0.0520
     16 C         -5.574759   -0.489505   7.374708 C.3        1 UNL1     0.1322
     17 O         -4.623694   -0.34988   6.29626 O.3        1 UNL1     -0.4828
     18 C         -6.953045   0.110576   7.086687 C.ar        1 UNL1     -0.0067
     19 C         -7.4501   1.134705   7.918738 C.ar        1 UNL1     -0.0516
     20 C         -8.726088   1.672365   7.712001 C.ar        1 UNL1     -0.0198
     21 C         -9.515889   1.190438   6.683513 C.ar        1 UNL1     0.1169
     22 C         -9.041141   0.205881   5.826717 C.ar        1 UNL1     -0.0198
     23 C         -7.758006   -0.31904   6.021857 C.ar        1 UNL1     -0.0516
     24 O         -10.767635   1.711808   6.536181 O.3        1 UNL1     -0.5068
     25 O         -6.760402   -3.784856   6.913947 O.2        1 UNL1     -0.2917
     26 O         -6.297074   -4.449398   4.342519 O.3        1 UNL1     -0.5058
     27 O         -0.601354   -0.487332   2.439429 O.3        1 UNL1     -0.3648
     28 O         0.533444   -1.852895   -0.702172 O.3        1 UNL1     -0.3841
     29 O         -2.411747   0.189445   -0.62772 O.3        1 UNL1     -0.3863
     30 O         -2.061753   -3.456307   -0.921153 O.3        1 UNL1     -0.3829
     31 H         0.505544   -1.978483   1.711945 H        1 UNL1     0.0937
     32 H         0.0   0.0   0.0 H        1 UNL1     0.0671
     33 H         -1.504025   -1.17721   -1.807565 H        1 UNL1     0.0649
     34 H         -3.615013   -2.126296   -0.74683 H        1 UNL1     0.0683
     35 H         -3.202957   -3.398775   1.308714 H        1 UNL1     0.1085
     36 H         -5.006002   -3.685483   2.279299 H        1 UNL1     0.0691
     37 H         -3.511045   -0.029912   4.020593 H        1 UNL1     0.0691
     38 H         -4.63731   -2.264878   8.204977 H        1 UNL1     0.0385
     39 H         -6.329765   -2.058433   8.696423 H        1 UNL1     0.0385
     40 H         -5.15762   0.118259   8.18904 H        1 UNL1     0.0789
     41 H         -6.853238   1.523744   8.738528 H        1 UNL1     0.0623
     42 H         -9.102757   2.453462   8.367761 H        1 UNL1     0.0654
     43 H         -9.645447   -0.168188   5.008918 H        1 UNL1     0.0654
     44 H         -7.41521   -1.07967   5.327035 H        1 UNL1     0.0623
     45 H         -10.743593   2.370372   5.823136 H        1 UNL1     0.2921
     46 H         -6.181649   -4.869062   5.209682 H        1 UNL1     0.2922
     47 H         0.196603   0.059469   2.450989 H        1 UNL1     0.2126
     48 H         0.278111   -1.803165   -1.643482 H        1 UNL1     0.2101
     49 H         -3.082686   0.138815   0.071616 H        1 UNL1     0.2100
     50 H         -1.142347   -3.558342   -0.59867 H        1 UNL1     0.2102
@<TRIPOS>BOND
     1     1     2    1
     2     1     6    1
     3     2     3    1
     4     3     4    1
     5     3    29    1
     6     3    33    1
     7     4     5    1
     8     5     6    1
     9     5     7    1
    10     5    35    1
    11     7     8    1
    12     8     9   ar
    13     8    13   ar
    14     9    10   ar
    15     9    36    1
    16    10    11   ar
    17    10    26    1
    18    11    12   ar
    19    11    14    1
    20    12    13   ar
    21    12    17    1
    22    13    37    1
    23    14    15    1
    24    14    25    2
    25    15    16    1
    26    15    38    1
    27    15    39    1
    28    16    17    1
    29    16    18    1
    30    16    40    1
    31    18    19   ar
    32    18    23   ar
    33    19    20   ar
    34    19    41    1
    35    20    21   ar
    36    20    42    1
    37    21    22   ar
    38    21    24    1
    39    22    23   ar
    40    22    43    1
    41    23    44    1
    42    24    45    1
    43    26    46    1
    44    27    47    1
    45    28    48    1
    46    29    49    1
    47    30    50    1
    48     1    31    1
    49     1    27    1
    50     2    32    1
    51     2    28    1
    52     4    34    1
    53     4    30    1
