@<TRIPOS>MOLECULE
*****
 50 53 0 0 0
SMALL
GASTEIGER

@<TRIPOS>ATOM
     1 C         1.405412   1.515632   0.706032 C.3        1 UNL1     0.1889
     2 C         0.635443   0.178437   0.876319 C.3        1 UNL1     0.1342
     3 C         -0.22563   0.091461   2.145749 C.3        1 UNL1     0.1174
     4 C         0.399732   0.819643   3.338138 C.3        1 UNL1     0.1456
     5 C         0.915872   2.222274   2.968558 C.3        1 UNL1     0.2326
     6 O         1.859617   2.128019   1.903978 O.3        1 UNL1     -0.3076
     7 O         -0.135675   3.170357   2.710276 O.3        1 UNL1     -0.4605
     8 C         0.129883   4.481268   3.063149 C.ar        1 UNL1     0.1310
     9 C         0.916738   4.885175   4.147132 C.ar        1 UNL1     0.0226
     10 C         1.141283   6.241209   4.412944 C.ar        1 UNL1     0.1343
     11 C         0.603403   7.226736   3.586348 C.ar        1 UNL1     0.1007
     12 C         -0.217726   6.836872   2.524963 C.ar        1 UNL1     0.1389
     13 C         -0.445517   5.473401   2.259465 C.ar        1 UNL1     0.0229
     14 C         0.877257   8.67066   3.771395 C.2        1 UNL1     0.1740
     15 C         0.40442   9.568105   2.665698 C.3        1 UNL1     0.0520
     16 C         -0.962034   9.0825   2.202073 C.3        1 UNL1     0.1322
     17 O         -0.885302   7.724985   1.713876 O.3        1 UNL1     -0.4828
     18 C         -2.080683   9.329297   3.217179 C.ar        1 UNL1     -0.0067
     19 C         -2.404894   10.652028   3.582532 C.ar        1 UNL1     -0.0516
     20 C         -3.390011   10.911015   4.542966 C.ar        1 UNL1     -0.0198
     21 C         -4.051468   9.858101   5.149327 C.ar        1 UNL1     0.1169
     22 C         -3.777875   8.545757   4.786368 C.ar        1 UNL1     -0.0198
     23 C         -2.80579   8.287141   3.812599 C.ar        1 UNL1     -0.0516
     24 O         -4.977946   10.147722   6.107532 O.3        1 UNL1     -0.5068
     25 O         1.517516   9.121568   4.717563 O.2        1 UNL1     -0.2917
     26 O         1.91723   6.5686   5.486399 O.3        1 UNL1     -0.5058
     27 O         0.745381   2.444368   -0.139305 O.3        1 UNL1     -0.3648
     28 O         1.592979   -0.89512   0.933811 O.3        1 UNL1     -0.3841
     29 O         -1.56482   0.513419   1.879942 O.3        1 UNL1     -0.3863
     30 O         1.503095   0.037796   3.845086 O.3        1 UNL1     -0.3829
     31 H         2.332277   1.27722   0.172966 H        1 UNL1     0.0937
     32 H         -0.0   0.0   0.0 H        1 UNL1     0.0671
     33 H         -0.30382   -0.968296   2.425964 H        1 UNL1     0.0649
     34 H         -0.331664   0.905559   4.149358 H        1 UNL1     0.0683
     35 H         1.470661   2.543133   3.859141 H        1 UNL1     0.1085
     36 H         1.408535   4.166766   4.793772 H        1 UNL1     0.0691
     37 H         -1.089564   5.196067   1.42773 H        1 UNL1     0.0691
     38 H         1.13948   9.511246   1.855771 H        1 UNL1     0.0385
     39 H         0.375333   10.60092   3.029327 H        1 UNL1     0.0385
     40 H         -1.234369   9.676737   1.319329 H        1 UNL1     0.0789
     41 H         -1.893666   11.495542   3.127801 H        1 UNL1     0.0623
     42 H         -3.622618   11.934965   4.824802 H        1 UNL1     0.0654
     43 H         -4.300505   7.714287   5.243999 H        1 UNL1     0.0654
     44 H         -2.62514   7.250301   3.545815 H        1 UNL1     0.0623
     45 H         -4.624623   9.872343   6.968953 H        1 UNL1     0.2921
     46 H         2.853061   6.528472   5.233374 H        1 UNL1     0.2922
     47 H         -0.205174   2.443882   0.040429 H        1 UNL1     0.2126
     48 H         2.4777   -0.482722   0.903329 H        1 UNL1     0.2101
     49 H         -1.702966   1.40992   2.224898 H        1 UNL1     0.2100
     50 H         1.226958   -0.902072   3.8555 H        1 UNL1     0.2102
@<TRIPOS>BOND
     1     1     2    1
     2     1     6    1
     3     2     3    1
     4     3     4    1
     5     3    29    1
     6     3    33    1
     7     4     5    1
     8     5     6    1
     9     5     7    1
    10     5    35    1
    11     7     8    1
    12     8     9   ar
    13     8    13   ar
    14     9    10   ar
    15     9    36    1
    16    10    11   ar
    17    10    26    1
    18    11    12   ar
    19    11    14    1
    20    12    13   ar
    21    12    17    1
    22    13    37    1
    23    14    15    1
    24    14    25    2
    25    15    16    1
    26    15    38    1
    27    15    39    1
    28    16    17    1
    29    16    18    1
    30    16    40    1
    31    18    19   ar
    32    18    23   ar
    33    19    20   ar
    34    19    41    1
    35    20    21   ar
    36    20    42    1
    37    21    22   ar
    38    21    24    1
    39    22    23   ar
    40    22    43    1
    41    23    44    1
    42    24    45    1
    43    26    46    1
    44    27    47    1
    45    28    48    1
    46    29    49    1
    47    30    50    1
    48     1    31    1
    49     1    27    1
    50     2    32    1
    51     2    28    1
    52     4    34    1
    53     4    30    1
