@<TRIPOS>MOLECULE
*****
 50 53 0 0 0
SMALL
GASTEIGER

@<TRIPOS>ATOM
     1 C         0.242713   -1.762473   1.267117 C.3        1 UNL1     0.1889
     2 C         -0.332992   -1.045182   0.016518 C.3        1 UNL1     0.1342
     3 C         -1.86464   -1.084979   -0.097218 C.3        1 UNL1     0.1174
     4 C         -2.465406   -2.38947   0.432406 C.3        1 UNL1     0.1456
     5 C         -1.879968   -2.797822   1.796545 C.3        1 UNL1     0.2326
     6 O         -0.46229   -2.916093   1.701312 O.3        1 UNL1     -0.3076
     7 O         -2.305662   -1.951074   2.879653 O.3        1 UNL1     -0.4605
     8 C         -2.418348   -2.559743   4.116727 C.ar        1 UNL1     0.1310
     9 C         -3.033708   -3.792336   4.360339 C.ar        1 UNL1     0.0226
     10 C         -3.082047   -4.334769   5.650041 C.ar        1 UNL1     0.1343
     11 C         -2.494676   -3.668277   6.724576 C.ar        1 UNL1     0.1007
     12 C         -1.913276   -2.417398   6.500838 C.ar        1 UNL1     0.1389
     13 C         -1.867127   -1.870967   5.204414 C.ar        1 UNL1     0.0229
     14 C         -2.442945   -4.234484   8.09238 C.2        1 UNL1     0.1740
     15 C         -1.582301   -3.490607   9.070894 C.3        1 UNL1     0.0520
     16 C         -1.778835   -1.997484   8.847473 C.3        1 UNL1     0.1322
     17 O         -1.401908   -1.626153   7.503185 O.3        1 UNL1     -0.4828
     18 C         -3.152696   -1.484462   9.285694 C.ar        1 UNL1     -0.0067
     19 C         -3.898832   -0.668756   8.410412 C.ar        1 UNL1     -0.0516
     20 C         -5.137477   -0.143998   8.798164 C.ar        1 UNL1     -0.0198
     21 C         -5.636366   -0.420931   10.058419 C.ar        1 UNL1     0.1169
     22 C         -4.940517   -1.248271   10.930279 C.ar        1 UNL1     -0.0198
     23 C         -3.710473   -1.788194   10.535904 C.ar        1 UNL1     -0.0516
     24 O         -6.828118   0.138563   10.414925 O.3        1 UNL1     -0.5068
     25 O         -2.992873   -5.285692   8.410224 O.2        1 UNL1     -0.2917
     26 O         -3.697966   -5.540242   5.820518 O.3        1 UNL1     -0.5058
     27 O         0.522136   -0.88298   2.344708 O.3        1 UNL1     -0.3648
     28 O         0.200583   -1.680849   -1.159888 O.3        1 UNL1     -0.3841
     29 O         -2.44771   0.075233   0.499498 O.3        1 UNL1     -0.3863
     30 O         -2.211666   -3.447695   -0.517049 O.3        1 UNL1     -0.3829
     31 H         1.223698   -2.155439   0.978455 H        1 UNL1     0.0937
     32 H         0.0   0.0   0.0 H        1 UNL1     0.0671
     33 H         -2.123364   -1.025883   -1.163656 H        1 UNL1     0.0649
     34 H         -3.553116   -2.291694   0.520307 H        1 UNL1     0.0683
     35 H         -2.273968   -3.808457   1.961646 H        1 UNL1     0.1085
     36 H         -3.459307   -4.385564   3.558425 H        1 UNL1     0.0691
     37 H         -1.409773   -0.894976   5.056893 H        1 UNL1     0.0691
     38 H         -0.543105   -3.78395   8.887733 H        1 UNL1     0.0385
     39 H         -1.84959   -3.795733   10.088358 H        1 UNL1     0.0385
     40 H         -1.055726   -1.476203   9.489267 H        1 UNL1     0.0789
     41 H         -3.524796   -0.42919   7.419273 H        1 UNL1     0.0623
     42 H         -5.697782   0.493421   8.11863 H        1 UNL1     0.0654
     43 H         -5.329063   -1.483853   11.913866 H        1 UNL1     0.0654
     44 H         -3.19897   -2.43908   11.23844 H        1 UNL1     0.0623
     45 H         -6.732991   1.104515   10.39035 H        1 UNL1     0.2921
     46 H         -3.078449   -6.16513   6.229329 H        1 UNL1     0.2922
     47 H         1.119643   -0.179046   2.056052 H        1 UNL1     0.2126
     48 H         1.168349   -1.552755   -1.132444 H        1 UNL1     0.2101
     49 H         -2.250418   0.857941   -0.039239 H        1 UNL1     0.2100
     50 H         -2.711114   -3.24498   -1.335078 H        1 UNL1     0.2102
@<TRIPOS>BOND
     1     1     2    1
     2     1     6    1
     3     2     3    1
     4     3     4    1
     5     3    29    1
     6     3    33    1
     7     4     5    1
     8     5     6    1
     9     5     7    1
    10     5    35    1
    11     7     8    1
    12     8     9   ar
    13     8    13   ar
    14     9    10   ar
    15     9    36    1
    16    10    11   ar
    17    10    26    1
    18    11    12   ar
    19    11    14    1
    20    12    13   ar
    21    12    17    1
    22    13    37    1
    23    14    15    1
    24    14    25    2
    25    15    16    1
    26    15    38    1
    27    15    39    1
    28    16    17    1
    29    16    18    1
    30    16    40    1
    31    18    19   ar
    32    18    23   ar
    33    19    20   ar
    34    19    41    1
    35    20    21   ar
    36    20    42    1
    37    21    22   ar
    38    21    24    1
    39    22    23   ar
    40    22    43    1
    41    23    44    1
    42    24    45    1
    43    26    46    1
    44    27    47    1
    45    28    48    1
    46    29    49    1
    47    30    50    1
    48     1    31    1
    49     1    27    1
    50     2    32    1
    51     2    28    1
    52     4    34    1
    53     4    30    1
