@<TRIPOS>MOLECULE
*****
 50 53 0 0 0
SMALL
GASTEIGER

@<TRIPOS>ATOM
     1 C         -0.472642   -2.084253   -0.45089 C.3        1 UNL1     0.1889
     2 C         -0.292186   -0.906582   0.544332 C.3        1 UNL1     0.1342
     3 C         0.72361   -1.166036   1.667412 C.3        1 UNL1     0.1174
     4 C         0.734238   -2.62425   2.132832 C.3        1 UNL1     0.1456
     5 C         0.759946   -3.618681   0.957754 C.3        1 UNL1     0.2326
     6 O         -0.355888   -3.38747   0.100827 O.3        1 UNL1     -0.3076
     7 O         2.016336   -3.644709   0.256235 O.3        1 UNL1     -0.4605
     8 C         2.00465   -4.253625   -0.985784 C.ar        1 UNL1     0.1310
     9 C         1.093609   -3.982932   -2.012444 C.ar        1 UNL1     0.0226
     10 C         1.174978   -4.642282   -3.244735 C.ar        1 UNL1     0.1343
     11 C         2.18491   -5.571969   -3.488788 C.ar        1 UNL1     0.1007
     12 C         3.075609   -5.880671   -2.457216 C.ar        1 UNL1     0.1389
     13 C         2.991969   -5.219492   -1.217346 C.ar        1 UNL1     0.0229
     14 C         2.368365   -6.236144   -4.800035 C.2        1 UNL1     0.1740
     15 C         3.630984   -7.032233   -4.953608 C.3        1 UNL1     0.0520
     16 C         3.890261   -7.780017   -3.653011 C.3        1 UNL1     0.1322
     17 O         4.040105   -6.856916   -2.551874 O.3        1 UNL1     -0.4828
     18 C         2.906425   -8.923326   -3.392941 C.ar        1 UNL1     -0.0067
     19 C         3.391986   -10.162126   -2.926232 C.ar        1 UNL1     -0.0516
     20 C         2.525558   -11.242925   -2.7234 C.ar        1 UNL1     -0.0198
     21 C         1.175607   -11.100192   -2.990023 C.ar        1 UNL1     0.1169
     22 C         0.662469   -9.882883   -3.418609 C.ar        1 UNL1     -0.0198
     23 C         1.525913   -8.796518   -3.603893 C.ar        1 UNL1     -0.0516
     24 O         0.368162   -12.185755   -2.816861 O.3        1 UNL1     -0.5068
     25 O         1.594384   -6.095634   -5.743271 O.2        1 UNL1     -0.2917
     26 O         0.255107   -4.333453   -4.203926 O.3        1 UNL1     -0.5058
     27 O         0.295842   -1.946212   -1.635442 O.3        1 UNL1     -0.3648
     28 O         -1.561529   -0.63821   1.168393 O.3        1 UNL1     -0.3841
     29 O         2.020536   -0.693813   1.297114 O.3        1 UNL1     -0.3863
     30 O         -0.444476   -2.876227   2.928339 O.3        1 UNL1     -0.3829
     31 H         -1.511222   -2.044877   -0.797127 H        1 UNL1     0.0937
     32 H         0.0   0.0   0.0 H        1 UNL1     0.0671
     33 H         0.428136   -0.558035   2.533871 H        1 UNL1     0.0649
     34 H         1.601069   -2.804527   2.778204 H        1 UNL1     0.0683
     35 H         0.600026   -4.594414   1.43341 H        1 UNL1     0.1085
     36 H         0.320009   -3.230576   -1.90463 H        1 UNL1     0.0691
     37 H         3.696713   -5.478696   -0.430172 H        1 UNL1     0.0691
     38 H         4.44133   -6.32889   -5.173097 H        1 UNL1     0.0385
     39 H         3.526101   -7.710432   -5.807319 H        1 UNL1     0.0385
     40 H         4.874419   -8.258947   -3.745641 H        1 UNL1     0.0789
     41 H         4.448759   -10.302348   -2.71834 H        1 UNL1     0.0623
     42 H         2.913905   -12.196608   -2.374564 H        1 UNL1     0.0654
     43 H         -0.395263   -9.755774   -3.615984 H        1 UNL1     0.0654
     44 H         1.089171   -7.857321   -3.929485 H        1 UNL1     0.0623
     45 H         0.607471   -12.615574   -1.97978 H        1 UNL1     0.2921
     46 H         0.005747   -5.138757   -4.684255 H        1 UNL1     0.2922
     47 H         0.666663   -2.801038   -1.89549 H        1 UNL1     0.2126
     48 H         -1.800073   -1.439559   1.673041 H        1 UNL1     0.2101
     49 H         2.6686   -0.943453   1.974968 H        1 UNL1     0.2100
     50 H         -0.364984   -2.359861   3.757048 H        1 UNL1     0.2102
@<TRIPOS>BOND
     1     1     2    1
     2     1     6    1
     3     2     3    1
     4     3     4    1
     5     3    29    1
     6     3    33    1
     7     4     5    1
     8     5     6    1
     9     5     7    1
    10     5    35    1
    11     7     8    1
    12     8     9   ar
    13     8    13   ar
    14     9    10   ar
    15     9    36    1
    16    10    11   ar
    17    10    26    1
    18    11    12   ar
    19    11    14    1
    20    12    13   ar
    21    12    17    1
    22    13    37    1
    23    14    15    1
    24    14    25    2
    25    15    16    1
    26    15    38    1
    27    15    39    1
    28    16    17    1
    29    16    18    1
    30    16    40    1
    31    18    19   ar
    32    18    23   ar
    33    19    20   ar
    34    19    41    1
    35    20    21   ar
    36    20    42    1
    37    21    22   ar
    38    21    24    1
    39    22    23   ar
    40    22    43    1
    41    23    44    1
    42    24    45    1
    43    26    46    1
    44    27    47    1
    45    28    48    1
    46    29    49    1
    47    30    50    1
    48     1    31    1
    49     1    27    1
    50     2    32    1
    51     2    28    1
    52     4    34    1
    53     4    30    1
