@<TRIPOS>MOLECULE
*****
 50 53 0 0 0
SMALL
GASTEIGER

@<TRIPOS>ATOM
     1 C         -0.350275   -1.338409   1.690199 C.3        1 UNL1     0.1889
     2 C         -0.471622   -0.972836   0.186347 C.3        1 UNL1     0.1342
     3 C         -1.910132   -0.94376   -0.352457 C.3        1 UNL1     0.1174
     4 C         -2.808178   -2.00035   0.29581 C.3        1 UNL1     0.1456
     5 C         -2.662969   -2.038733   1.828064 C.3        1 UNL1     0.2326
     6 O         -1.301425   -2.27127   2.181605 O.3        1 UNL1     -0.3076
     7 O         -3.230624   -0.891789   2.486554 O.3        1 UNL1     -0.4605
     8 C         -3.754318   -1.114193   3.74743 C.ar        1 UNL1     0.1310
     9 C         -4.586255   -2.181426   4.102669 C.ar        1 UNL1     0.0226
     10 C         -5.052793   -2.329926   5.41423 C.ar        1 UNL1     0.1343
     11 C         -4.678988   -1.427127   6.408747 C.ar        1 UNL1     0.1007
     12 C         -3.881989   -0.33443   6.057195 C.ar        1 UNL1     0.1389
     13 C         -3.415174   -0.18387   4.737784 C.ar        1 UNL1     0.0229
     14 C         -5.074269   -1.582991   7.827766 C.2        1 UNL1     0.1740
     15 C         -4.403241   -0.652213   8.794679 C.3        1 UNL1     0.0520
     16 C         -4.312287   0.725461   8.153041 C.3        1 UNL1     0.1322
     17 O         -3.543236   0.672329   6.931237 O.3        1 UNL1     -0.4828
     18 C         -5.662333   1.434728   8.022496 C.ar        1 UNL1     -0.0067
     19 C         -6.02248   2.01681   6.78974 C.ar        1 UNL1     -0.0516
     20 C         -7.228576   2.713686   6.649532 C.ar        1 UNL1     -0.0198
     21 C         -8.077816   2.841528   7.734095 C.ar        1 UNL1     0.1169
     22 C         -7.766406   2.250789   8.951834 C.ar        1 UNL1     -0.0198
     23 C         -6.568985   1.538116   9.087244 C.ar        1 UNL1     -0.0516
     24 O         -9.225855   3.559522   7.570109 O.3        1 UNL1     -0.5068
     25 O         -5.836818   -2.460138   8.224776 O.2        1 UNL1     -0.2917
     26 O         -5.861955   -3.391993   5.695044 O.3        1 UNL1     -0.5058
     27 O         -0.238549   -0.207611   2.53967 O.3        1 UNL1     -0.3648
     28 O         0.253515   -1.951679   -0.580952 O.3        1 UNL1     -0.3841
     29 O         -2.456527   0.37401   -0.268398 O.3        1 UNL1     -0.3863
     30 O         -2.469755   -3.300065   -0.235134 O.3        1 UNL1     -0.3829
     31 H         0.605444   -1.860465   1.809097 H        1 UNL1     0.0937
     32 H         0.0   0.0   0.0 H        1 UNL1     0.0671
     33 H         -1.870865   -1.175398   -1.426012 H        1 UNL1     0.0649
     34 H         -3.85568   -1.810971   0.036434 H        1 UNL1     0.0683
     35 H         -3.22662   -2.932082   2.124889 H        1 UNL1     0.1085
     36 H         -4.86714   -2.947687   3.388478 H        1 UNL1     0.0691
     37 H         -2.796922   0.67614   4.48951 H        1 UNL1     0.0691
     38 H         -3.407344   -1.055949   9.006132 H        1 UNL1     0.0385
     39 H         -4.971698   -0.636249   9.730831 H        1 UNL1     0.0385
     40 H         -3.716065   1.357011   8.825488 H        1 UNL1     0.0789
     41 H         -5.368854   1.938338   5.925873 H        1 UNL1     0.0623
     42 H         -7.489495   3.16825   5.697007 H        1 UNL1     0.0654
     43 H         -8.431283   2.331916   9.803461 H        1 UNL1     0.0654
     44 H         -6.362642   1.080558   10.050005 H        1 UNL1     0.0623
     45 H         -8.986591   4.475118   7.352962 H        1 UNL1     0.2921
     46 H         -5.471215   -3.91564   6.41235 H        1 UNL1     0.2922
     47 H         0.504399   0.346818   2.263092 H        1 UNL1     0.2126
     48 H         1.190922   -1.874607   -0.318159 H        1 UNL1     0.2101
     49 H         -2.015921   0.955404   -0.908431 H        1 UNL1     0.2100
     50 H         -2.704534   -3.3077   -1.186203 H        1 UNL1     0.2102
@<TRIPOS>BOND
     1     1     2    1
     2     1     6    1
     3     2     3    1
     4     3     4    1
     5     3    29    1
     6     3    33    1
     7     4     5    1
     8     5     6    1
     9     5     7    1
    10     5    35    1
    11     7     8    1
    12     8     9   ar
    13     8    13   ar
    14     9    10   ar
    15     9    36    1
    16    10    11   ar
    17    10    26    1
    18    11    12   ar
    19    11    14    1
    20    12    13   ar
    21    12    17    1
    22    13    37    1
    23    14    15    1
    24    14    25    2
    25    15    16    1
    26    15    38    1
    27    15    39    1
    28    16    17    1
    29    16    18    1
    30    16    40    1
    31    18    19   ar
    32    18    23   ar
    33    19    20   ar
    34    19    41    1
    35    20    21   ar
    36    20    42    1
    37    21    22   ar
    38    21    24    1
    39    22    23   ar
    40    22    43    1
    41    23    44    1
    42    24    45    1
    43    26    46    1
    44    27    47    1
    45    28    48    1
    46    29    49    1
    47    30    50    1
    48     1    31    1
    49     1    27    1
    50     2    32    1
    51     2    28    1
    52     4    34    1
    53     4    30    1
