@<TRIPOS>MOLECULE
*****
 50 53 0 0 0
SMALL
GASTEIGER

@<TRIPOS>ATOM
     1 C         -0.377276   -1.38539   1.645953 C.3        1 UNL1     0.1889
     2 C         -0.492354   -0.968029   0.155146 C.3        1 UNL1     0.1342
     3 C         -1.930494   -0.890203   -0.379793 C.3        1 UNL1     0.1174
     4 C         -2.850471   -1.947904   0.235046 C.3        1 UNL1     0.1456
     5 C         -2.704427   -2.039778   1.764946 C.3        1 UNL1     0.2326
     6 O         -1.347841   -2.313154   2.108178 O.3        1 UNL1     -0.3076
     7 O         -3.246402   -0.90312   2.461791 O.3        1 UNL1     -0.4605
     8 C         -3.776797   -1.156171   3.714059 C.ar        1 UNL1     0.1310
     9 C         -4.633586   -2.215397   4.032262 C.ar        1 UNL1     0.0226
     10 C         -5.105207   -2.397649   5.337735 C.ar        1 UNL1     0.1343
     11 C         -4.712056   -1.53809   6.36264 C.ar        1 UNL1     0.1007
     12 C         -3.889614   -0.45274   6.048968 C.ar        1 UNL1     0.1389
     13 C         -3.417658   -0.268168   4.73572 C.ar        1 UNL1     0.0229
     14 C         -5.112754   -1.733002   7.775298 C.2        1 UNL1     0.1740
     15 C         -4.421777   -0.851404   8.77374 C.3        1 UNL1     0.0520
     16 C         -4.298232   0.544846   8.17945 C.3        1 UNL1     0.1322
     17 O         -3.528946   0.515602   6.956988 O.3        1 UNL1     -0.4828
     18 C         -5.631399   1.289105   8.07236 C.ar        1 UNL1     -0.0067
     19 C         -5.969688   1.933604   6.86472 C.ar        1 UNL1     -0.0516
     20 C         -7.159146   2.662718   6.748328 C.ar        1 UNL1     -0.0198
     21 C         -8.013259   2.760795   7.832164 C.ar        1 UNL1     0.1169
     22 C         -7.723775   2.109405   9.024107 C.ar        1 UNL1     -0.0198
     23 C         -6.543302   1.364921   9.134942 C.ar        1 UNL1     -0.0516
     24 O         -9.144039   3.510771   7.693332 O.3        1 UNL1     -0.5068
     25 O         -5.89585   -2.605326   8.141763 O.2        1 UNL1     -0.2917
     26 O         -5.939006   -3.449706   5.581746 O.3        1 UNL1     -0.5058
     27 O         -0.240167   -0.285813   2.531909 O.3        1 UNL1     -0.3648
     28 O         0.210583   -1.936538   -0.645214 O.3        1 UNL1     -0.3841
     29 O         -2.448156   0.435579   -0.251494 O.3        1 UNL1     -0.3863
     30 O         -2.540839   -3.23646   -0.338923 O.3        1 UNL1     -0.3829
     31 H         0.567055   -1.931584   1.745897 H        1 UNL1     0.0937
     32 H         0.0   0.0   0.0 H        1 UNL1     0.0671
     33 H         -1.897439   -1.087208   -1.460449 H        1 UNL1     0.0649
     34 H         -3.893918   -1.72753   -0.016061 H        1 UNL1     0.0683
     35 H         -3.286945   -2.930028   2.033288 H        1 UNL1     0.1085
     36 H         -4.931078   -2.950219   3.292225 H        1 UNL1     0.0691
     37 H         -2.779418   0.5853   4.517238 H        1 UNL1     0.0691
     38 H         -3.435735   -1.284974   8.971892 H        1 UNL1     0.0385
     39 H         -4.99099   -0.854203   9.709564 H        1 UNL1     0.0385
     40 H         -3.688534   1.139216   8.873361 H        1 UNL1     0.0789
     41 H         -5.311662   1.87932   6.002337 H        1 UNL1     0.0623
     42 H         -7.403075   3.165119   5.815535 H        1 UNL1     0.0654
     43 H         -8.392902   2.167138   9.874311 H        1 UNL1     0.0654
     44 H         -6.354074   0.860288   10.077482 H        1 UNL1     0.0623
     45 H         -8.883161   4.429611   7.518999 H        1 UNL1     0.2921
     46 H         -5.561411   -4.006341   6.281025 H        1 UNL1     0.2922
     47 H         0.507581   0.267311   2.265851 H        1 UNL1     0.2126
     48 H         1.149729   -1.888404   -0.381738 H        1 UNL1     0.2101
     49 H         -1.995784   1.028057   -0.872883 H        1 UNL1     0.2100
     50 H         -2.776783   -3.207747   -1.289301 H        1 UNL1     0.2102
@<TRIPOS>BOND
     1     1     2    1
     2     1     6    1
     3     2     3    1
     4     3     4    1
     5     3    29    1
     6     3    33    1
     7     4     5    1
     8     5     6    1
     9     5     7    1
    10     5    35    1
    11     7     8    1
    12     8     9   ar
    13     8    13   ar
    14     9    10   ar
    15     9    36    1
    16    10    11   ar
    17    10    26    1
    18    11    12   ar
    19    11    14    1
    20    12    13   ar
    21    12    17    1
    22    13    37    1
    23    14    15    1
    24    14    25    2
    25    15    16    1
    26    15    38    1
    27    15    39    1
    28    16    17    1
    29    16    18    1
    30    16    40    1
    31    18    19   ar
    32    18    23   ar
    33    19    20   ar
    34    19    41    1
    35    20    21   ar
    36    20    42    1
    37    21    22   ar
    38    21    24    1
    39    22    23   ar
    40    22    43    1
    41    23    44    1
    42    24    45    1
    43    26    46    1
    44    27    47    1
    45    28    48    1
    46    29    49    1
    47    30    50    1
    48     1    31    1
    49     1    27    1
    50     2    32    1
    51     2    28    1
    52     4    34    1
    53     4    30    1
