@<TRIPOS>MOLECULE
*****
 50 53 0 0 0
SMALL
GASTEIGER

@<TRIPOS>ATOM
     1 C         -0.343332   -1.334103   1.695021 C.3        1 UNL1     0.1889
     2 C         -0.468294   -0.973693   0.190219 C.3        1 UNL1     0.1342
     3 C         -1.907774   -0.950787   -0.346285 C.3        1 UNL1     0.1174
     4 C         -2.801468   -2.008084   0.306824 C.3        1 UNL1     0.1456
     5 C         -2.653613   -2.041143   1.83895 C.3        1 UNL1     0.2326
     6 O         -1.290771   -2.268336   2.190966 O.3        1 UNL1     -0.3076
     7 O         -3.223734   -0.893872   2.494734 O.3        1 UNL1     -0.4605
     8 C         -3.737859   -1.112259   3.760242 C.ar        1 UNL1     0.1310
     9 C         -4.561128   -2.182352   4.126888 C.ar        1 UNL1     0.0226
     10 C         -5.018206   -2.326216   5.442291 C.ar        1 UNL1     0.1343
     11 C         -4.643266   -1.415655   6.429276 C.ar        1 UNL1     0.1007
     12 C         -3.85506   -0.320283   6.066404 C.ar        1 UNL1     0.1389
     13 C         -3.397769   -0.174402   4.743137 C.ar        1 UNL1     0.0229
     14 C         -5.028344   -1.565859   7.851706 C.2        1 UNL1     0.1740
     15 C         -4.356539   -0.625726   8.808982 C.3        1 UNL1     0.0520
     16 C         -4.277931   0.748829   8.159077 C.3        1 UNL1     0.1322
     17 O         -3.516573   0.693351   6.932567 O.3        1 UNL1     -0.4828
     18 C         -5.632975   1.449396   8.033434 C.ar        1 UNL1     -0.0067
     19 C         -6.004602   2.022408   6.799836 C.ar        1 UNL1     -0.0516
     20 C         -7.215692   2.711378   6.663656 C.ar        1 UNL1     -0.0198
     21 C         -8.058574   2.84032   7.753037 C.ar        1 UNL1     0.1169
     22 C         -7.735729   2.25828   8.971987 C.ar        1 UNL1     -0.0198
     23 C         -6.533252   1.553436   9.103514 C.ar        1 UNL1     -0.0516
     24 O         -9.211889   3.550615   7.592581 O.3        1 UNL1     -0.5068
     25 O         -5.78308   -2.44523   8.258604 O.2        1 UNL1     -0.2917
     26 O         -5.819217   -3.391428   5.734335 O.3        1 UNL1     -0.5058
     27 O         -0.233712   -0.200267   2.540709 O.3        1 UNL1     -0.3648
     28 O         0.258608   -1.952723   -0.575169 O.3        1 UNL1     -0.3841
     29 O         -2.458115   0.365546   -0.265506 O.3        1 UNL1     -0.3863
     30 O         -2.459892   -3.308428   -0.220549 O.3        1 UNL1     -0.3829
     31 H         0.614197   -1.852816   1.81399 H        1 UNL1     0.0937
     32 H         0.0   0.0   0.0 H        1 UNL1     0.0671
     33 H         -1.869561   -1.185717   -1.419164 H        1 UNL1     0.0649
     34 H         -3.849979   -1.822776   0.048588 H        1 UNL1     0.0683
     35 H         -3.213999   -2.935284   2.139546 H        1 UNL1     0.1085
     36 H         -4.84213   -2.954256   3.418846 H        1 UNL1     0.0691
     37 H         -2.786252   0.68782   4.486013 H        1 UNL1     0.0691
     38 H         -3.35691   -1.022402   9.016146 H        1 UNL1     0.0385
     39 H         -4.918956   -0.607843   9.74874 H        1 UNL1     0.0385
     40 H         -3.68108   1.387646   8.824059 H        1 UNL1     0.0789
     41 H         -5.356178   1.942926   5.932151 H        1 UNL1     0.0623
     42 H         -7.48551   3.159036   5.710339 H        1 UNL1     0.0654
     43 H         -8.3955   2.340283   9.827492 H        1 UNL1     0.0654
     44 H         -6.317923   1.102521   10.067441 H        1 UNL1     0.0623
     45 H         -8.979902   4.460099   7.344112 H        1 UNL1     0.2921
     46 H         -5.42071   -3.908725   6.451976 H        1 UNL1     0.2922
     47 H         0.511289   0.352016   2.265364 H        1 UNL1     0.2126
     48 H         1.194047   -1.881612   -0.303822 H        1 UNL1     0.2101
     49 H         -2.014645   0.9483   -0.902316 H        1 UNL1     0.2100
     50 H         -2.690984   -3.317912   -1.172505 H        1 UNL1     0.2102
@<TRIPOS>BOND
     1     1     2    1
     2     1     6    1
     3     2     3    1
     4     3     4    1
     5     3    29    1
     6     3    33    1
     7     4     5    1
     8     5     6    1
     9     5     7    1
    10     5    35    1
    11     7     8    1
    12     8     9   ar
    13     8    13   ar
    14     9    10   ar
    15     9    36    1
    16    10    11   ar
    17    10    26    1
    18    11    12   ar
    19    11    14    1
    20    12    13   ar
    21    12    17    1
    22    13    37    1
    23    14    15    1
    24    14    25    2
    25    15    16    1
    26    15    38    1
    27    15    39    1
    28    16    17    1
    29    16    18    1
    30    16    40    1
    31    18    19   ar
    32    18    23   ar
    33    19    20   ar
    34    19    41    1
    35    20    21   ar
    36    20    42    1
    37    21    22   ar
    38    21    24    1
    39    22    23   ar
    40    22    43    1
    41    23    44    1
    42    24    45    1
    43    26    46    1
    44    27    47    1
    45    28    48    1
    46    29    49    1
    47    30    50    1
    48     1    31    1
    49     1    27    1
    50     2    32    1
    51     2    28    1
    52     4    34    1
    53     4    30    1
