@<TRIPOS>MOLECULE
*****
 50 53 0 0 0
SMALL
GASTEIGER

@<TRIPOS>ATOM
     1 C         -1.09126   -1.425912   1.243676 C.3        1 UNL1     0.1889
     2 C         0.063424   -0.414046   1.013955 C.3        1 UNL1     0.1342
     3 C         1.471738   -0.987401   1.233912 C.3        1 UNL1     0.1174
     4 C         1.520919   -2.025977   2.357326 C.3        1 UNL1     0.1456
     5 C         0.381413   -3.056584   2.258646 C.3        1 UNL1     0.2326
     6 O         -0.878856   -2.389833   2.264527 O.3        1 UNL1     -0.3076
     7 O         0.531378   -3.973463   1.159481 O.3        1 UNL1     -0.4605
     8 C         -0.496189   -4.882779   0.984046 C.ar        1 UNL1     0.1310
     9 C         -1.664016   -4.943983   1.751989 C.ar        1 UNL1     0.0226
     10 C         -2.657216   -5.893647   1.484421 C.ar        1 UNL1     0.1343
     11 C         -2.517213   -6.790636   0.426285 C.ar        1 UNL1     0.1007
     12 C         -1.337179   -6.766054   -0.321846 C.ar        1 UNL1     0.1389
     13 C         -0.337503   -5.812803   -0.050939 C.ar        1 UNL1     0.0229
     14 C         -3.571779   -7.759098   0.046646 C.2        1 UNL1     0.1740
     15 C         -3.348882   -8.488278   -1.245702 C.3        1 UNL1     0.0520
     16 C         -1.874755   -8.856241   -1.343233 C.3        1 UNL1     0.1322
     17 O         -1.047731   -7.672036   -1.315669 O.3        1 UNL1     -0.4828
     18 C         -1.446991   -9.951671   -0.363553 C.ar        1 UNL1     -0.0067
     19 C         -1.920353   -11.267297   -0.545951 C.ar        1 UNL1     -0.0516
     20 C         -1.586793   -12.282563   0.358447 C.ar        1 UNL1     -0.0198
     21 C         -0.788463   -11.994038   1.450807 C.ar        1 UNL1     0.1169
     22 C         -0.279597   -10.715578   1.639043 C.ar        1 UNL1     -0.0198
     23 C         -0.597904   -9.704301   0.724682 C.ar        1 UNL1     -0.0516
     24 O         -0.515719   -12.999777   2.330864 O.3        1 UNL1     -0.5068
     25 O         -4.608122   -7.915719   0.686918 O.2        1 UNL1     -0.2917
     26 O         -3.771754   -5.901162   2.271399 O.3        1 UNL1     -0.5058
     27 O         -1.56419   -2.025082   0.0478 O.3        1 UNL1     -0.3648
     28 O         -0.101141   0.682096   1.932703 O.3        1 UNL1     -0.3841
     29 O         2.018691   -1.47353   0.006454 O.3        1 UNL1     -0.3863
     30 O         1.427374   -1.351185   3.630745 O.3        1 UNL1     -0.3829
     31 H         -1.94565   -0.847341   1.611579 H        1 UNL1     0.0937
     32 H         0.0   0.0   0.0 H        1 UNL1     0.0671
     33 H         2.127253   -0.159323   1.537732 H        1 UNL1     0.0649
     34 H         2.483686   -2.548692   2.341514 H        1 UNL1     0.0683
     35 H         0.449887   -3.617506   3.199155 H        1 UNL1     0.1085
     36 H         -1.857562   -4.238617   2.552689 H        1 UNL1     0.0691
     37 H         0.572374   -5.815284   -0.647269 H        1 UNL1     0.0691
     38 H         -3.643118   -7.817135   -2.059654 H        1 UNL1     0.0385
     39 H         -3.998583   -9.369567   -1.277259 H        1 UNL1     0.0385
     40 H         -1.712642   -9.281117   -2.343093 H        1 UNL1     0.0789
     41 H         -2.555998   -11.517324   -1.390399 H        1 UNL1     0.0623
     42 H         -1.967795   -13.290441   0.213426 H        1 UNL1     0.0654
     43 H         0.358756   -10.482153   2.482802 H        1 UNL1     0.0654
     44 H         -0.17427   -8.719557   0.896898 H        1 UNL1     0.0623
     45 H         0.393592   -12.887825   2.652324 H        1 UNL1     0.2921
     46 H         -3.611275   -5.366018   3.06467 H        1 UNL1     0.2922
     47 H         -0.824625   -2.384636   -0.461733 H        1 UNL1     0.2126
     48 H         0.076235   1.499117   1.427979 H        1 UNL1     0.2101
     49 H         2.481516   -2.312449   0.160731 H        1 UNL1     0.2100
     50 H         0.671026   -0.73004   3.587976 H        1 UNL1     0.2102
@<TRIPOS>BOND
     1     1     2    1
     2     1     6    1
     3     2     3    1
     4     3     4    1
     5     3    29    1
     6     3    33    1
     7     4     5    1
     8     5     6    1
     9     5     7    1
    10     5    35    1
    11     7     8    1
    12     8     9   ar
    13     8    13   ar
    14     9    10   ar
    15     9    36    1
    16    10    11   ar
    17    10    26    1
    18    11    12   ar
    19    11    14    1
    20    12    13   ar
    21    12    17    1
    22    13    37    1
    23    14    15    1
    24    14    25    2
    25    15    16    1
    26    15    38    1
    27    15    39    1
    28    16    17    1
    29    16    18    1
    30    16    40    1
    31    18    19   ar
    32    18    23   ar
    33    19    20   ar
    34    19    41    1
    35    20    21   ar
    36    20    42    1
    37    21    22   ar
    38    21    24    1
    39    22    23   ar
    40    22    43    1
    41    23    44    1
    42    24    45    1
    43    26    46    1
    44    27    47    1
    45    28    48    1
    46    29    49    1
    47    30    50    1
    48     1    31    1
    49     1    27    1
    50     2    32    1
    51     2    28    1
    52     4    34    1
    53     4    30    1
