@<TRIPOS>MOLECULE
*****
 50 53 0 0 0
SMALL
GASTEIGER

@<TRIPOS>ATOM
     1 C         -0.326078   -1.327145   1.703867 C.3        1 UNL1     0.1889
     2 C         -0.458957   -0.976708   0.197389 C.3        1 UNL1     0.1342
     3 C         -1.900251   -0.969821   -0.334672 C.3        1 UNL1     0.1174
     4 C         -2.782395   -2.031214   0.327435 C.3        1 UNL1     0.1456
     5 C         -2.629472   -2.053954   1.859251 C.3        1 UNL1     0.2326
     6 O         -1.263558   -2.266884   2.208264 O.3        1 UNL1     -0.3076
     7 O         -3.2078   -0.907996   2.510126 O.3        1 UNL1     -0.4605
     8 C         -3.715998   -1.123537   3.778512 C.ar        1 UNL1     0.1310
     9 C         -4.5285   -2.198777   4.154013 C.ar        1 UNL1     0.0226
     10 C         -4.980166   -2.338996   5.471677 C.ar        1 UNL1     0.1343
     11 C         -4.610321   -1.419341   6.452131 C.ar        1 UNL1     0.1007
     12 C         -3.833096   -0.319116   6.080368 C.ar        1 UNL1     0.1389
     13 C         -3.381259   -0.176923   4.754828 C.ar        1 UNL1     0.0229
     14 C         -4.9896   -1.564628   7.876629 C.2        1 UNL1     0.1740
     15 C         -4.323261   -0.612924   8.82626 C.3        1 UNL1     0.0520
     16 C         -4.258998   0.75844   8.168089 C.3        1 UNL1     0.1322
     17 O         -3.501002   0.702571   6.939516 O.3        1 UNL1     -0.4828
     18 C         -5.620649   1.446115   8.042654 C.ar        1 UNL1     -0.0067
     19 C         -6.00124   2.00853   6.806914 C.ar        1 UNL1     -0.0516
     20 C         -7.218872   2.685834   6.670552 C.ar        1 UNL1     -0.0198
     21 C         -8.059474   2.813628   7.761829 C.ar        1 UNL1     0.1169
     22 C         -7.727628   2.241664   8.983129 C.ar        1 UNL1     -0.0198
     23 C         -6.51848   1.548382   9.114957 C.ar        1 UNL1     -0.0516
     24 O         -9.219601   3.51263   7.600884 O.3        1 UNL1     -0.5068
     25 O         -5.735154   -2.448308   8.291049 O.2        1 UNL1     -0.2917
     26 O         -5.770687   -3.409594   5.772479 O.3        1 UNL1     -0.5058
     27 O         -0.223983   -0.18743   2.542565 O.3        1 UNL1     -0.3648
     28 O         0.274296   -1.953676   -0.564568 O.3        1 UNL1     -0.3841
     29 O         -2.462107   0.341991   -0.25984 O.3        1 UNL1     -0.3863
     30 O         -2.430831   -3.331525   -0.193413 O.3        1 UNL1     -0.3829
     31 H         0.636426   -1.83657   1.822827 H        1 UNL1     0.0937
     32 H         0.0   0.0   0.0 H        1 UNL1     0.0671
     33 H         -1.863281   -1.210695   -1.406275 H        1 UNL1     0.0649
     34 H         -3.833325   -1.856806   0.071446 H        1 UNL1     0.0683
     35 H         -3.180885   -2.951289   2.166842 H        1 UNL1     0.1085
     36 H         -4.804782   -2.977305   3.451388 H        1 UNL1     0.0691
     37 H         -2.778296   0.689207   4.490732 H        1 UNL1     0.0691
     38 H         -3.319477   -0.999424   9.032567 H        1 UNL1     0.0385
     39 H         -4.882882   -0.594552   9.767677 H        1 UNL1     0.0385
     40 H         -3.665822   1.406461   8.827431 H        1 UNL1     0.0789
     41 H         -5.354839   1.929755   5.937655 H        1 UNL1     0.0623
     42 H         -7.495662   3.125457   5.715497 H        1 UNL1     0.0654
     43 H         -8.385435   2.322786   9.840228 H        1 UNL1     0.0654
     44 H         -6.296114   1.105078   10.080814 H        1 UNL1     0.0623
     45 H         -8.996479   4.423419   7.349098 H        1 UNL1     0.2921
     46 H         -5.365325   -3.919086   6.491862 H        1 UNL1     0.2922
     47 H         0.515178   0.369867   2.261635 H        1 UNL1     0.2126
     48 H         1.209902   -1.872613   -0.296609 H        1 UNL1     0.2101
     49 H         -2.027768   0.924232   -0.903376 H        1 UNL1     0.2100
     50 H         -2.670007   -3.350606   -1.143225 H        1 UNL1     0.2102
@<TRIPOS>BOND
     1     1     2    1
     2     1     6    1
     3     2     3    1
     4     3     4    1
     5     3    29    1
     6     3    33    1
     7     4     5    1
     8     5     6    1
     9     5     7    1
    10     5    35    1
    11     7     8    1
    12     8     9   ar
    13     8    13   ar
    14     9    10   ar
    15     9    36    1
    16    10    11   ar
    17    10    26    1
    18    11    12   ar
    19    11    14    1
    20    12    13   ar
    21    12    17    1
    22    13    37    1
    23    14    15    1
    24    14    25    2
    25    15    16    1
    26    15    38    1
    27    15    39    1
    28    16    17    1
    29    16    18    1
    30    16    40    1
    31    18    19   ar
    32    18    23   ar
    33    19    20   ar
    34    19    41    1
    35    20    21   ar
    36    20    42    1
    37    21    22   ar
    38    21    24    1
    39    22    23   ar
    40    22    43    1
    41    23    44    1
    42    24    45    1
    43    26    46    1
    44    27    47    1
    45    28    48    1
    46    29    49    1
    47    30    50    1
    48     1    31    1
    49     1    27    1
    50     2    32    1
    51     2    28    1
    52     4    34    1
    53     4    30    1
