@<TRIPOS>MOLECULE
*****
 50 53 0 0 0
SMALL
GASTEIGER

@<TRIPOS>ATOM
     1 C         -0.128227   -1.910573   1.050749 C.3        1 UNL1     0.1889
     2 C         -0.514803   -0.961857   -0.115629 C.3        1 UNL1     0.1342
     3 C         -2.022948   -0.70848   -0.263158 C.3        1 UNL1     0.1174
     4 C         -2.868327   -1.933546   0.094141 C.3        1 UNL1     0.1456
     5 C         -2.421623   -2.595353   1.410511 C.3        1 UNL1     0.2326
     6 O         -1.045211   -2.958371   1.329417 O.3        1 UNL1     -0.3076
     7 O         -2.733118   -1.814975   2.578973 O.3        1 UNL1     -0.4605
     8 C         -3.014394   -2.530811   3.728751 C.ar        1 UNL1     0.1310
     9 C         -3.850113   -3.650401   3.802191 C.ar        1 UNL1     0.0226
     10 C         -4.059061   -4.319311   5.014132 C.ar        1 UNL1     0.1343
     11 C         -3.417926   -3.898715   6.178558 C.ar        1 UNL1     0.1007
     12 C         -2.613348   -2.757364   6.126079 C.ar        1 UNL1     0.1389
     13 C         -2.405502   -2.08338   4.907893 C.ar        1 UNL1     0.0229
     14 C         -3.536688   -4.618028   7.467991 C.2        1 UNL1     0.1740
     15 C         -2.608387   -4.160608   8.554533 C.3        1 UNL1     0.0520
     16 C         -2.525455   -2.641057   8.509322 C.3        1 UNL1     0.1322
     17 O         -2.021137   -2.192815   7.231898 O.3        1 UNL1     -0.4828
     18 C         -3.806941   -1.94015   8.966756 C.ar        1 UNL1     -0.0067
     19 C         -3.805263   -0.541503   9.145634 C.ar        1 UNL1     -0.0516
     20 C         -4.946228   0.124851   9.608381 C.ar        1 UNL1     -0.0198
     21 C         -6.090253   -0.595388   9.902132 C.ar        1 UNL1     0.1169
     22 C         -6.133285   -1.969384   9.704335 C.ar        1 UNL1     -0.0198
     23 C         -4.998295   -2.633598   9.224051 C.ar        1 UNL1     -0.0516
     24 O         -7.16986   0.082902   10.386665 O.3        1 UNL1     -0.5068
     25 O         -4.279686   -5.580919   7.639106 O.2        1 UNL1     -0.2917
     26 O         -4.88682   -5.403923   5.018307 O.3        1 UNL1     -0.5058
     27 O         0.259521   -1.226123   2.231413 O.3        1 UNL1     -0.3648
     28 O         -0.055715   -1.545081   -1.34924 O.3        1 UNL1     -0.3841
     29 O         -2.413225   0.462432   0.457106 O.3        1 UNL1     -0.3863
     30 O         -2.769135   -2.90441   -0.970412 O.3        1 UNL1     -0.3829
     31 H         0.777721   -2.440071   0.736158 H        1 UNL1     0.0937
     32 H         0.0   0.0   0.0 H        1 UNL1     0.0671
     33 H         -2.223075   -0.481407   -1.319618 H        1 UNL1     0.0649
     34 H         -3.923727   -1.649854   0.171928 H        1 UNL1     0.0683
     35 H         -2.996308   -3.529379   1.445321 H        1 UNL1     0.1085
     36 H         -4.333049   -4.060195   2.921872 H        1 UNL1     0.0691
     37 H         -1.775447   -1.196629   4.893891 H        1 UNL1     0.0691
     38 H         -1.629771   -4.615308   8.367222 H        1 UNL1     0.0385
     39 H         -2.976674   -4.526661   9.518975 H        1 UNL1     0.0385
     40 H         -1.754771   -2.33733   9.230651 H        1 UNL1     0.0789
     41 H         -2.91694   0.045345   8.930826 H        1 UNL1     0.0623
     42 H         -4.928666   1.202176   9.753554 H        1 UNL1     0.0654
     43 H         -7.02873   -2.541143   9.916886 H        1 UNL1     0.0654
     44 H         -5.07073   -3.706098   9.071269 H        1 UNL1     0.0623
     45 H         -6.938098   0.447314   11.256267 H        1 UNL1     0.2921
     46 H         -4.416349   -6.168534   5.386327 H        1 UNL1     0.2922
     47 H         0.973347   -0.60256   2.037815 H        1 UNL1     0.2126
     48 H         0.91639   -1.451972   -1.357904 H        1 UNL1     0.2101
     49 H         -2.21376   1.254262   -0.06731 H        1 UNL1     0.2100
     50 H         -3.210353   -2.530809   -1.761274 H        1 UNL1     0.2102
@<TRIPOS>BOND
     1     1     2    1
     2     1     6    1
     3     2     3    1
     4     3     4    1
     5     3    29    1
     6     3    33    1
     7     4     5    1
     8     5     6    1
     9     5     7    1
    10     5    35    1
    11     7     8    1
    12     8     9   ar
    13     8    13   ar
    14     9    10   ar
    15     9    36    1
    16    10    11   ar
    17    10    26    1
    18    11    12   ar
    19    11    14    1
    20    12    13   ar
    21    12    17    1
    22    13    37    1
    23    14    15    1
    24    14    25    2
    25    15    16    1
    26    15    38    1
    27    15    39    1
    28    16    17    1
    29    16    18    1
    30    16    40    1
    31    18    19   ar
    32    18    23   ar
    33    19    20   ar
    34    19    41    1
    35    20    21   ar
    36    20    42    1
    37    21    22   ar
    38    21    24    1
    39    22    23   ar
    40    22    43    1
    41    23    44    1
    42    24    45    1
    43    26    46    1
    44    27    47    1
    45    28    48    1
    46    29    49    1
    47    30    50    1
    48     1    31    1
    49     1    27    1
    50     2    32    1
    51     2    28    1
    52     4    34    1
    53     4    30    1
