@<TRIPOS>MOLECULE
*****
 50 53 0 0 0
SMALL
GASTEIGER

@<TRIPOS>ATOM
     1 C         -0.318265   -1.360297   1.679019 C.3        1 UNL1     0.1889
     2 C         -0.461884   -0.978467   0.18118 C.3        1 UNL1     0.1342
     3 C         -1.907456   -0.954179   -0.338625 C.3        1 UNL1     0.1174
     4 C         -2.789084   -2.024927   0.308947 C.3        1 UNL1     0.1456
     5 C         -2.623679   -2.079741   1.838653 C.3        1 UNL1     0.2326
     6 O         -1.255954   -2.305937   2.171867 O.3        1 UNL1     -0.3076
     7 O         -3.191267   -0.944765   2.517618 O.3        1 UNL1     -0.4605
     8 C         -3.700253   -1.186364   3.780983 C.ar        1 UNL1     0.1310
     9 C         -4.521921   -2.263134   4.131306 C.ar        1 UNL1     0.0226
     10 C         -4.973666   -2.431126   5.445691 C.ar        1 UNL1     0.1343
     11 C         -4.594838   -1.53871   6.447652 C.ar        1 UNL1     0.1007
     12 C         -3.80822   -0.436741   6.101705 C.ar        1 UNL1     0.1389
     13 C         -3.356293   -0.266588   4.779495 C.ar        1 UNL1     0.0229
     14 C         -4.97415   -1.714986   7.868638 C.2        1 UNL1     0.1740
     15 C         -4.298582   -0.792407   8.840237 C.3        1 UNL1     0.0520
     16 C         -4.222746   0.593824   8.215282 C.3        1 UNL1     0.1322
     17 O         -3.466342   0.560935   6.984899 O.3        1 UNL1     -0.4828
     18 C         -5.57836   1.29633   8.107952 C.ar        1 UNL1     -0.0067
     19 C         -5.948679   1.904681   6.890994 C.ar        1 UNL1     -0.0516
     20 C         -7.16031   2.596055   6.773023 C.ar        1 UNL1     -0.0198
     21 C         -8.005043   2.692285   7.864349 C.ar        1 UNL1     0.1169
     22 C         -7.683473   2.075285   9.066324 C.ar        1 UNL1     -0.0198
     23 C         -6.48043   1.368171   9.179167 C.ar        1 UNL1     -0.0516
     24 O         -9.158884   3.405742   7.722827 O.3        1 UNL1     -0.5068
     25 O         -5.727143   -2.601791   8.26242 O.2        1 UNL1     -0.2917
     26 O         -5.773378   -3.501647   5.721426 O.3        1 UNL1     -0.5058
     27 O         -0.203945   -0.23848   2.539974 O.3        1 UNL1     -0.3648
     28 O         0.260499   -1.942914   -0.606671 O.3        1 UNL1     -0.3841
     29 O         -2.462533   0.358345   -0.232307 O.3        1 UNL1     -0.3863
     30 O         -2.447903   -3.315865   -0.241293 O.3        1 UNL1     -0.3829
     31 H         0.64279   -1.876389   1.779526 H        1 UNL1     0.0937
     32 H         0.0   0.0   0.0 H        1 UNL1     0.0671
     33 H         -1.880425   -1.173207   -1.415201 H        1 UNL1     0.0649
     34 H         -3.841255   -1.840572   0.065328 H        1 UNL1     0.0683
     35 H         -3.176738   -2.980695   2.132401 H        1 UNL1     0.1085
     36 H         -4.8057   -3.022003   3.410398 H        1 UNL1     0.0691
     37 H         -2.745911   0.600304   4.535724 H        1 UNL1     0.0691
     38 H         -3.298082   -1.192628   9.036071 H        1 UNL1     0.0385
     39 H         -4.8572   -0.791824   9.782428 H        1 UNL1     0.0385
     40 H         -3.62328   1.220473   8.889427 H        1 UNL1     0.0789
     41 H         -5.298806   1.85122   6.022399 H        1 UNL1     0.0623
     42 H         -7.429122   3.071039   5.832735 H        1 UNL1     0.0654
     43 H         -8.344676   2.131609   9.922798 H        1 UNL1     0.0654
     44 H         -6.266119   0.889565   10.129878 H        1 UNL1     0.0623
     45 H         -8.927122   4.327876   7.526177 H        1 UNL1     0.2921
     46 H         -5.371921   -4.031918   6.427866 H        1 UNL1     0.2922
     47 H         0.524223   0.330448   2.253701 H        1 UNL1     0.2126
     48 H         1.202106   -1.853879   -0.363396 H        1 UNL1     0.2101
     49 H         -2.03464   0.950364   -0.871223 H        1 UNL1     0.2100
     50 H         -2.694966   -3.3144   -1.189275 H        1 UNL1     0.2102
@<TRIPOS>BOND
     1     1     2    1
     2     1     6    1
     3     2     3    1
     4     3     4    1
     5     3    29    1
     6     3    33    1
     7     4     5    1
     8     5     6    1
     9     5     7    1
    10     5    35    1
    11     7     8    1
    12     8     9   ar
    13     8    13   ar
    14     9    10   ar
    15     9    36    1
    16    10    11   ar
    17    10    26    1
    18    11    12   ar
    19    11    14    1
    20    12    13   ar
    21    12    17    1
    22    13    37    1
    23    14    15    1
    24    14    25    2
    25    15    16    1
    26    15    38    1
    27    15    39    1
    28    16    17    1
    29    16    18    1
    30    16    40    1
    31    18    19   ar
    32    18    23   ar
    33    19    20   ar
    34    19    41    1
    35    20    21   ar
    36    20    42    1
    37    21    22   ar
    38    21    24    1
    39    22    23   ar
    40    22    43    1
    41    23    44    1
    42    24    45    1
    43    26    46    1
    44    27    47    1
    45    28    48    1
    46    29    49    1
    47    30    50    1
    48     1    31    1
    49     1    27    1
    50     2    32    1
    51     2    28    1
    52     4    34    1
    53     4    30    1
