@<TRIPOS>MOLECULE
*****
 50 53 0 0 0
SMALL
GASTEIGER

@<TRIPOS>ATOM
     1 C         -0.16494   0.914198   1.976826 C.3        1 UNL1     0.1889
     2 C         0.352668   -0.193799   1.020602 C.3        1 UNL1     0.1342
     3 C         -0.040107   -1.623437   1.423501 C.3        1 UNL1     0.1174
     4 C         -0.081896   -1.822194   2.940691 C.3        1 UNL1     0.1456
     5 C         -0.830915   -0.688171   3.664104 C.3        1 UNL1     0.2326
     6 O         -0.230907   0.567036   3.352152 O.3        1 UNL1     -0.3076
     7 O         -2.252624   -0.706744   3.441128 O.3        1 UNL1     -0.4605
     8 C         -3.035455   -0.237485   4.480599 C.ar        1 UNL1     0.1310
     9 C         -2.878324   -0.574287   5.829367 C.ar        1 UNL1     0.0226
     10 C         -3.713628   -0.0314   6.812954 C.ar        1 UNL1     0.1343
     11 C         -4.712092   0.880778   6.474071 C.ar        1 UNL1     0.1007
     12 C         -4.905185   1.193307   5.125804 C.ar        1 UNL1     0.1389
     13 C         -4.066866   0.645268   4.136711 C.ar        1 UNL1     0.0229
     14 C         -5.568153   1.548879   7.481521 C.2        1 UNL1     0.1740
     15 C         -6.43236   2.661125   6.964216 C.3        1 UNL1     0.0520
     16 C         -6.992577   2.246293   5.610691 C.3        1 UNL1     0.1322
     17 O         -5.925847   1.994734   4.669481 O.3        1 UNL1     -0.4828
     18 C         -8.04165   1.134771   5.692473 C.ar        1 UNL1     -0.0067
     19 C         -7.933918   0.01673   4.84007 C.ar        1 UNL1     -0.0516
     20 C         -8.901921   -0.994547   4.85592 C.ar        1 UNL1     -0.0198
     21 C         -9.983826   -0.896085   5.712433 C.ar        1 UNL1     0.1169
     22 C         -10.100042   0.176187   6.587399 C.ar        1 UNL1     -0.0198
     23 C         -9.122511   1.178426   6.58479 C.ar        1 UNL1     -0.0516
     24 O         -10.926263   -1.881308   5.673062 O.3        1 UNL1     -0.5068
     25 O         -5.533455   1.284496   8.680429 O.2        1 UNL1     -0.2917
     26 O         -3.508559   -0.401623   8.110053 O.3        1 UNL1     -0.5058
     27 O         -1.36454   1.528429   1.53358 O.3        1 UNL1     -0.3648
     28 O         1.790941   -0.136552   0.992325 O.3        1 UNL1     -0.3841
     29 O         -1.254281   -2.016044   0.78025 O.3        1 UNL1     -0.3863
     30 O         1.268936   -1.883547   3.44782 O.3        1 UNL1     -0.3829
     31 H         0.57618   1.720535   1.951538 H        1 UNL1     0.0937
     32 H         0.0   0.0   0.0 H        1 UNL1     0.0671
     33 H         0.729542   -2.304813   1.034801 H        1 UNL1     0.0649
     34 H         -0.55772   -2.779787   3.179457 H        1 UNL1     0.0683
     35 H         -0.636964   -0.879012   4.727044 H        1 UNL1     0.1085
     36 H         -2.085321   -1.234227   6.163653 H        1 UNL1     0.0691
     37 H         -4.238666   0.903688   3.094024 H        1 UNL1     0.0691
     38 H         -5.804619   3.554153   6.874955 H        1 UNL1     0.0385
     39 H         -7.222846   2.870143   7.693066 H        1 UNL1     0.0385
     40 H         -7.522302   3.116132   5.199241 H        1 UNL1     0.0789
     41 H         -7.098977   -0.079417   4.152117 H        1 UNL1     0.0623
     42 H         -8.813902   -1.845799   4.185372 H        1 UNL1     0.0654
     43 H         -10.935332   0.255684   7.272877 H        1 UNL1     0.0654
     44 H         -9.239561   1.996388   7.289121 H        1 UNL1     0.0623
     45 H         -11.306689   -1.90631   4.780108 H        1 UNL1     0.2921
     46 H         -3.355005   0.388642   8.651639 H        1 UNL1     0.2922
     47 H         -1.248198   1.885689   0.642126 H        1 UNL1     0.2126
     48 H         2.029011   0.745141   0.646388 H        1 UNL1     0.2101
     49 H         -1.102272   -2.127634   -0.171714 H        1 UNL1     0.2100
     50 H         1.69022   -2.690861   3.086604 H        1 UNL1     0.2102
@<TRIPOS>BOND
     1     1     2    1
     2     1     6    1
     3     2     3    1
     4     3     4    1
     5     3    29    1
     6     3    33    1
     7     4     5    1
     8     5     6    1
     9     5     7    1
    10     5    35    1
    11     7     8    1
    12     8     9   ar
    13     8    13   ar
    14     9    10   ar
    15     9    36    1
    16    10    11   ar
    17    10    26    1
    18    11    12   ar
    19    11    14    1
    20    12    13   ar
    21    12    17    1
    22    13    37    1
    23    14    15    1
    24    14    25    2
    25    15    16    1
    26    15    38    1
    27    15    39    1
    28    16    17    1
    29    16    18    1
    30    16    40    1
    31    18    19   ar
    32    18    23   ar
    33    19    20   ar
    34    19    41    1
    35    20    21   ar
    36    20    42    1
    37    21    22   ar
    38    21    24    1
    39    22    23   ar
    40    22    43    1
    41    23    44    1
    42    24    45    1
    43    26    46    1
    44    27    47    1
    45    28    48    1
    46    29    49    1
    47    30    50    1
    48     1    31    1
    49     1    27    1
    50     2    32    1
    51     2    28    1
    52     4    34    1
    53     4    30    1
