@<TRIPOS>MOLECULE
*****
 50 53 0 0 0
SMALL
GASTEIGER

@<TRIPOS>ATOM
     1 C         -0.345163   -1.33614   1.693044 C.3        1 UNL1     0.1889
     2 C         -0.468872   -0.973726   0.18862 C.3        1 UNL1     0.1342
     3 C         -1.907954   -0.949472   -0.348896 C.3        1 UNL1     0.1174
     4 C         -2.802598   -2.007209   0.302198 C.3        1 UNL1     0.1456
     5 C         -2.655866   -2.042317   1.834386 C.3        1 UNL1     0.2326
     6 O         -1.293383   -2.270585   2.187094 O.3        1 UNL1     -0.3076
     7 O         -3.225943   -0.895638   2.491243 O.3        1 UNL1     -0.4605
     8 C         -3.748088   -1.117098   3.752928 C.ar        1 UNL1     0.1310
     9 C         -4.577016   -2.18581   4.110745 C.ar        1 UNL1     0.0226
     10 C         -5.042155   -2.333128   5.422936 C.ar        1 UNL1     0.1343
     11 C         -4.669891   -1.427577   6.415527 C.ar        1 UNL1     0.1007
     12 C         -3.875963   -0.333483   6.061377 C.ar        1 UNL1     0.1389
     13 C         -3.410558   -0.184119   4.741332 C.ar        1 UNL1     0.0229
     14 C         -5.063671   -1.581882   7.835133 C.2        1 UNL1     0.1740
     15 C         -4.394277   -0.647641   8.799838 C.3        1 UNL1     0.0520
     16 C         -4.307347   0.729097   8.155638 C.3        1 UNL1     0.1322
     17 O         -3.53911   0.67572   6.933332 O.3        1 UNL1     -0.4828
     18 C         -5.659304   1.434671   8.024864 C.ar        1 UNL1     -0.0067
     19 C         -6.015544   2.026567   6.795651 C.ar        1 UNL1     -0.0516
     20 C         -7.223462   2.720354   6.655809 C.ar        1 UNL1     -0.0198
     21 C         -8.078439   2.835353   7.737297 C.ar        1 UNL1     0.1169
     22 C         -7.770832   2.234761   8.951177 C.ar        1 UNL1     -0.0198
     23 C         -6.571508   1.52519   9.086035 C.ar        1 UNL1     -0.0516
     24 O         -9.228262   3.55068   7.574154 O.3        1 UNL1     -0.5068
     25 O         -5.823665   -2.460256   8.234323 O.2        1 UNL1     -0.2917
     26 O         -5.848379   -3.396751   5.706301 O.3        1 UNL1     -0.5058
     27 O         -0.235642   -0.20345   2.540278 O.3        1 UNL1     -0.3648
     28 O         0.25814   -1.952094   -0.57751 O.3        1 UNL1     -0.3841
     29 O         -2.457756   0.367004   -0.26681 O.3        1 UNL1     -0.3863
     30 O         -2.461229   -3.307024   -0.226611 O.3        1 UNL1     -0.3829
     31 H         0.612045   -1.855441   1.812034 H        1 UNL1     0.0937
     32 H         0.0   0.0   0.0 H        1 UNL1     0.0671
     33 H         -1.86907   -1.183031   -1.422049 H        1 UNL1     0.0649
     34 H         -3.850838   -1.821092   0.043444 H        1 UNL1     0.0683
     35 H         -3.216874   -2.936593   2.133419 H        1 UNL1     0.1085
     36 H         -4.856493   -2.954079   3.39816 H        1 UNL1     0.0691
     37 H         -2.794702   0.677019   4.491021 H        1 UNL1     0.0691
     38 H         -3.397186   -1.048445   9.011243 H        1 UNL1     0.0385
     39 H         -4.962047   -0.631437   9.736402 H        1 UNL1     0.0385
     40 H         -3.712221   1.363386   8.826476 H        1 UNL1     0.0789
     41 H         -5.357432   1.958243   5.934331 H        1 UNL1     0.0623
     42 H         -7.481379   3.182564   5.70615 H        1 UNL1     0.0654
     43 H         -8.440144   2.30581   9.800225 H        1 UNL1     0.0654
     44 H         -6.368204   1.059699   10.045635 H        1 UNL1     0.0623
     45 H         -8.991392   4.46383   7.344448 H        1 UNL1     0.2921
     46 H         -5.455744   -3.918097   6.424248 H        1 UNL1     0.2922
     47 H         0.508966   0.349567   2.26534 H        1 UNL1     0.2126
     48 H         1.193863   -1.879811   -0.307455 H        1 UNL1     0.2101
     49 H         -2.019285   0.948353   -0.908348 H        1 UNL1     0.2100
     50 H         -2.69687   -3.317074   -1.177445 H        1 UNL1     0.2102
@<TRIPOS>BOND
     1     1     2    1
     2     1     6    1
     3     2     3    1
     4     3     4    1
     5     3    29    1
     6     3    33    1
     7     4     5    1
     8     5     6    1
     9     5     7    1
    10     5    35    1
    11     7     8    1
    12     8     9   ar
    13     8    13   ar
    14     9    10   ar
    15     9    36    1
    16    10    11   ar
    17    10    26    1
    18    11    12   ar
    19    11    14    1
    20    12    13   ar
    21    12    17    1
    22    13    37    1
    23    14    15    1
    24    14    25    2
    25    15    16    1
    26    15    38    1
    27    15    39    1
    28    16    17    1
    29    16    18    1
    30    16    40    1
    31    18    19   ar
    32    18    23   ar
    33    19    20   ar
    34    19    41    1
    35    20    21   ar
    36    20    42    1
    37    21    22   ar
    38    21    24    1
    39    22    23   ar
    40    22    43    1
    41    23    44    1
    42    24    45    1
    43    26    46    1
    44    27    47    1
    45    28    48    1
    46    29    49    1
    47    30    50    1
    48     1    31    1
    49     1    27    1
    50     2    32    1
    51     2    28    1
    52     4    34    1
    53     4    30    1
