@<TRIPOS>MOLECULE
*****
 50 53 0 0 0
SMALL
GASTEIGER

@<TRIPOS>ATOM
     1 C         -1.872765   0.501961   1.005778 C.3        1 UNL1     0.1889
     2 C         -0.735163   0.814301   -0.003304 C.3        1 UNL1     0.1342
     3 C         -0.008991   2.146003   0.241046 C.3        1 UNL1     0.1174
     4 C         -0.938333   3.239908   0.772847 C.3        1 UNL1     0.1456
     5 C         -1.839406   2.743453   1.918257 C.3        1 UNL1     0.2326
     6 O         -2.604189   1.621374   1.483617 O.3        1 UNL1     -0.3076
     7 O         -1.12637   2.50139   3.144758 O.3        1 UNL1     -0.4605
     8 C         -1.799925   2.819312   4.310425 C.ar        1 UNL1     0.1310
     9 C         -2.970419   3.581715   4.387782 C.ar        1 UNL1     0.0226
     10 C         -3.588912   3.835435   5.617821 C.ar        1 UNL1     0.1343
     11 C         -3.064526   3.312386   6.799041 C.ar        1 UNL1     0.1007
     12 C         -1.873469   2.58398   6.739118 C.ar        1 UNL1     0.1389
     13 C         -1.250322   2.33123   5.502495 C.ar        1 UNL1     0.0229
     14 C         -3.72286   3.478792   8.115498 C.2        1 UNL1     0.1740
     15 C         -3.145545   2.666662   9.237417 C.3        1 UNL1     0.0520
     16 C         -1.628299   2.682027   9.112171 C.3        1 UNL1     0.1322
     17 O         -1.212162   2.114831   7.850352 O.3        1 UNL1     -0.4828
     18 C         -0.996902   4.037908   9.437206 C.ar        1 UNL1     -0.0067
     19 C         -0.726758   4.944538   8.391616 C.ar        1 UNL1     -0.0516
     20 C         -0.106731   6.173178   8.64847 C.ar        1 UNL1     -0.0198
     21 C         0.2539   6.503028   9.942677 C.ar        1 UNL1     0.1169
     22 C         -0.029165   5.645556   10.99788 C.ar        1 UNL1     -0.0198
     23 C         -0.665847   4.424854   10.743755 C.ar        1 UNL1     -0.0516
     24 O         0.890076   7.691724   10.149275 O.3        1 UNL1     -0.5068
     25 O         -4.725665   4.166666   8.28782 O.2        1 UNL1     -0.2917
     26 O         -4.727578   4.587084   5.624781 O.3        1 UNL1     -0.5058
     27 O         -1.470241   -0.3516   2.065115 O.3        1 UNL1     -0.3648
     28 O         -1.301454   0.871521   -1.325706 O.3        1 UNL1     -0.3841
     29 O         1.143894   1.951548   1.062738 O.3        1 UNL1     -0.3863
     30 O         -1.775602   3.714886   -0.303752 O.3        1 UNL1     -0.3829
     31 H         -2.623389   -0.080551   0.460506 H        1 UNL1     0.0937
     32 H         0.0   0.0   0.0 H        1 UNL1     0.0671
     33 H         0.377555   2.499379   -0.725095 H        1 UNL1     0.0649
     34 H         -0.348493   4.094921   1.121334 H        1 UNL1     0.0683
     35 H         -2.545167   3.568574   2.076232 H        1 UNL1     0.1085
     36 H         -3.458202   3.969267   3.500094 H        1 UNL1     0.0691
     37 H         -0.323221   1.762377   5.48295 H        1 UNL1     0.0691
     38 H         -3.539102   1.648684   9.145982 H        1 UNL1     0.0385
     39 H         -3.486372   3.080642   10.192527 H        1 UNL1     0.0385
     40 H         -1.234078   1.989244   9.867923 H        1 UNL1     0.0789
     41 H         -0.991765   4.705146   7.36589 H        1 UNL1     0.0623
     42 H         0.107025   6.858631   7.832092 H        1 UNL1     0.0654
     43 H         0.235331   5.900498   12.017173 H        1 UNL1     0.0654
     44 H         -0.881231   3.783994   11.593315 H        1 UNL1     0.0623
     45 H         1.276224   7.983279   9.30749 H        1 UNL1     0.2921
     46 H         -4.827682   5.030623   4.767656 H        1 UNL1     0.2922
     47 H         -1.046064   -1.146162   1.712121 H        1 UNL1     0.2126
     48 H         -1.516652   -0.047104   -1.577797 H        1 UNL1     0.2101
     49 H         1.246212   2.70117   1.670514 H        1 UNL1     0.2100
     50 H         -1.202859   4.179291   -0.948737 H        1 UNL1     0.2102
@<TRIPOS>BOND
     1     1     2    1
     2     1     6    1
     3     2     3    1
     4     3     4    1
     5     3    29    1
     6     3    33    1
     7     4     5    1
     8     5     6    1
     9     5     7    1
    10     5    35    1
    11     7     8    1
    12     8     9   ar
    13     8    13   ar
    14     9    10   ar
    15     9    36    1
    16    10    11   ar
    17    10    26    1
    18    11    12   ar
    19    11    14    1
    20    12    13   ar
    21    12    17    1
    22    13    37    1
    23    14    15    1
    24    14    25    2
    25    15    16    1
    26    15    38    1
    27    15    39    1
    28    16    17    1
    29    16    18    1
    30    16    40    1
    31    18    19   ar
    32    18    23   ar
    33    19    20   ar
    34    19    41    1
    35    20    21   ar
    36    20    42    1
    37    21    22   ar
    38    21    24    1
    39    22    23   ar
    40    22    43    1
    41    23    44    1
    42    24    45    1
    43    26    46    1
    44    27    47    1
    45    28    48    1
    46    29    49    1
    47    30    50    1
    48     1    31    1
    49     1    27    1
    50     2    32    1
    51     2    28    1
    52     4    34    1
    53     4    30    1
