@<TRIPOS>MOLECULE
*****
 50 53 0 0 0
SMALL
GASTEIGER

@<TRIPOS>ATOM
     1 C         -0.088217   -1.035829   1.920958 C.3        1 UNL1     0.1889
     2 C         -0.561902   -0.82349   0.457922 C.3        1 UNL1     0.1342
     3 C         -2.065958   -0.550311   0.304122 C.3        1 UNL1     0.1174
     4 C         -2.915035   -1.312924   1.324223 C.3        1 UNL1     0.1456
     5 C         -2.35395   -1.209514   2.754207 C.3        1 UNL1     0.2326
     6 O         -1.009991   -1.684615   2.784558 O.3        1 UNL1     -0.3076
     7 O         -2.505153   0.098089   3.336129 O.3        1 UNL1     -0.4605
     8 C         -2.690737   0.134018   4.706456 C.ar        1 UNL1     0.1310
     9 C         -3.567326   -0.684156   5.427207 C.ar        1 UNL1     0.0226
     10 C         -3.671831   -0.583138   6.819607 C.ar        1 UNL1     0.1343
     11 C         -2.884071   0.323017   7.528238 C.ar        1 UNL1     0.1007
     12 C         -2.034958   1.173797   6.815522 C.ar        1 UNL1     0.1389
     13 C         -1.931997   1.07385   5.415221 C.ar        1 UNL1     0.0229
     14 C         -2.892871   0.413516   9.006712 C.2        1 UNL1     0.1740
     15 C         -1.827027   1.28009   9.610513 C.3        1 UNL1     0.0520
     16 C         -1.674578   2.526593   8.749731 C.3        1 UNL1     0.1322
     17 O         -1.295202   2.175018   7.400829 O.3        1 UNL1     -0.4828
     18 C         -2.860374   3.489719   8.844596 C.ar        1 UNL1     -0.0067
     19 C         -3.440021   3.993134   7.661889 C.ar        1 UNL1     -0.0516
     20 C         -4.494761   4.912268   7.713658 C.ar        1 UNL1     -0.0198
     21 C         -4.972876   5.340453   8.939174 C.ar        1 UNL1     0.1169
     22 C         -4.444951   4.837407   10.121155 C.ar        1 UNL1     -0.0198
     23 C         -3.402526   3.904269   10.069592 C.ar        1 UNL1     -0.0516
     24 O         -5.975668   6.264945   8.950267 O.3        1 UNL1     -0.5068
     25 O         -3.658724   -0.230425   9.718958 O.2        1 UNL1     -0.2917
     26 O         -4.546561   -1.409416   7.462799 O.3        1 UNL1     -0.5058
     27 O         0.452651   0.133307   2.515406 O.3        1 UNL1     -0.3648
     28 O         -0.263423   -2.013497   -0.295404 O.3        1 UNL1     -0.3841
     29 O         -2.328861   0.854329   0.304915 O.3        1 UNL1     -0.3863
     30 O         -2.970893   -2.705918   0.947212 O.3        1 UNL1     -0.3829
     31 H         0.756424   -1.732138   1.878362 H        1 UNL1     0.0937
     32 H         0.0   0.0   0.0 H        1 UNL1     0.0671
     33 H         -2.370951   -0.903667   -0.690784 H        1 UNL1     0.0649
     34 H         -3.943638   -0.935823   1.311169 H        1 UNL1     0.0683
     35 H         -2.95783   -1.923946   3.327613 H        1 UNL1     0.1085
     36 H         -4.165671   -1.446679   4.940728 H        1 UNL1     0.0691
     37 H         -1.264375   1.748539   4.883649 H        1 UNL1     0.0691
     38 H         -0.89932   0.698308   9.630897 H        1 UNL1     0.0385
     39 H         -2.102446   1.520997   10.642931 H        1 UNL1     0.0385
     40 H         -0.813745   3.086201   9.140022 H        1 UNL1     0.0789
     41 H         -3.076604   3.679633   6.687571 H        1 UNL1     0.0623
     42 H         -4.925401   5.30218   6.794675 H        1 UNL1     0.0654
     43 H         -4.821923   5.154522   11.086164 H        1 UNL1     0.0654
     44 H         -3.021106   3.524313   11.012458 H        1 UNL1     0.0623
     45 H         -5.658817   7.066478   8.503201 H        1 UNL1     0.2921
     46 H         -4.071423   -1.923869   8.13436 H        1 UNL1     0.2922
     47 H         1.178968   0.47737   1.976941 H        1 UNL1     0.2126
     48 H         0.70631   -2.125817   -0.268271 H        1 UNL1     0.2101
     49 H         -1.984218   1.255038   -0.508994 H        1 UNL1     0.2100
     50 H         -3.456235   -2.769371   0.098607 H        1 UNL1     0.2102
@<TRIPOS>BOND
     1     1     2    1
     2     1     6    1
     3     2     3    1
     4     3     4    1
     5     3    29    1
     6     3    33    1
     7     4     5    1
     8     5     6    1
     9     5     7    1
    10     5    35    1
    11     7     8    1
    12     8     9   ar
    13     8    13   ar
    14     9    10   ar
    15     9    36    1
    16    10    11   ar
    17    10    26    1
    18    11    12   ar
    19    11    14    1
    20    12    13   ar
    21    12    17    1
    22    13    37    1
    23    14    15    1
    24    14    25    2
    25    15    16    1
    26    15    38    1
    27    15    39    1
    28    16    17    1
    29    16    18    1
    30    16    40    1
    31    18    19   ar
    32    18    23   ar
    33    19    20   ar
    34    19    41    1
    35    20    21   ar
    36    20    42    1
    37    21    22   ar
    38    21    24    1
    39    22    23   ar
    40    22    43    1
    41    23    44    1
    42    24    45    1
    43    26    46    1
    44    27    47    1
    45    28    48    1
    46    29    49    1
    47    30    50    1
    48     1    31    1
    49     1    27    1
    50     2    32    1
    51     2    28    1
    52     4    34    1
    53     4    30    1
