@<TRIPOS>MOLECULE
*****
 50 53 0 0 0
SMALL
GASTEIGER

@<TRIPOS>ATOM
     1 C         1.112306   -1.089718   1.531697 C.3        1 UNL1     0.1889
     2 C         -0.153912   -0.344737   1.030063 C.3        1 UNL1     0.1342
     3 C         -0.582662   0.847723   1.898785 C.3        1 UNL1     0.1174
     4 C         -0.317011   0.622052   3.389295 C.3        1 UNL1     0.1456
     5 C         1.091843   0.063155   3.65972 C.3        1 UNL1     0.2326
     6 O         1.278324   -1.153735   2.940503 O.3        1 UNL1     -0.3076
     7 O         2.141774   1.021048   3.432992 O.3        1 UNL1     -0.4605
     8 C         3.434433   0.539992   3.538566 C.ar        1 UNL1     0.1310
     9 C         4.358708   0.909228   4.521764 C.ar        1 UNL1     0.0226
     10 C         5.642301   0.351353   4.55444 C.ar        1 UNL1     0.1343
     11 C         6.025085   -0.607952   3.617929 C.ar        1 UNL1     0.1007
     12 C         5.124934   -0.954425   2.606757 C.ar        1 UNL1     0.1389
     13 C         3.835265   -0.391385   2.572548 C.ar        1 UNL1     0.0229
     14 C         7.338756   -1.291308   3.655977 C.2        1 UNL1     0.1740
     15 C         7.496269   -2.448364   2.71366 C.3        1 UNL1     0.0520
     16 C         6.840463   -2.0836   1.388963 C.3        1 UNL1     0.1322
     17 O         5.43452   -1.806304   1.571999 O.3        1 UNL1     -0.4828
     18 C         7.600149   -1.015249   0.598882 C.ar        1 UNL1     -0.0067
     19 C         9.009716   -1.000626   0.632364 C.ar        1 UNL1     -0.0516
     20 C         9.733963   -0.009133   -0.040221 C.ar        1 UNL1     -0.0198
     21 C         9.06168   0.975332   -0.742139 C.ar        1 UNL1     0.1169
     22 C         7.675131   0.968211   -0.821335 C.ar        1 UNL1     -0.0198
     23 C         6.951248   -0.033844   -0.164116 C.ar        1 UNL1     -0.0516
     24 O         9.799361   1.946302   -1.353241 O.3        1 UNL1     -0.5068
     25 O         8.228345   -1.002419   4.452003 O.2        1 UNL1     -0.2917
     26 O         6.496564   0.75496   5.538778 O.3        1 UNL1     -0.5058
     27 O         2.304656   -0.678701   0.881962 O.3        1 UNL1     -0.3648
     28 O         -1.25204   -1.27551   1.008115 O.3        1 UNL1     -0.3841
     29 O         -0.008197   2.062251   1.411914 O.3        1 UNL1     -0.3863
     30 O         -1.292621   -0.307361   3.908973 O.3        1 UNL1     -0.3829
     31 H         0.99412   -2.138974   1.239855 H        1 UNL1     0.0937
     32 H         0.0   0.0   0.0 H        1 UNL1     0.0671
     33 H         -1.668569   0.972369   1.78482 H        1 UNL1     0.0649
     34 H         -0.444957   1.561472   3.938405 H        1 UNL1     0.0683
     35 H         1.073486   -0.195997   4.725732 H        1 UNL1     0.1085
     36 H         4.10328   1.607933   5.31087 H        1 UNL1     0.0691
     37 H         3.153574   -0.676972   1.774281 H        1 UNL1     0.0691
     38 H         7.008306   -3.316104   3.170218 H        1 UNL1     0.0385
     39 H         8.561635   -2.67582   2.599477 H        1 UNL1     0.0385
     40 H         6.86315   -2.982546   0.758168 H        1 UNL1     0.0789
     41 H         9.560562   -1.756983   1.183856 H        1 UNL1     0.0623
     42 H         10.820282   -0.001741   0.003005 H        1 UNL1     0.0654
     43 H         7.139137   1.725675   -1.38068 H        1 UNL1     0.0654
     44 H         5.869569   -0.01484   -0.256065 H        1 UNL1     0.0623
     45 H         9.312168   2.255908   -2.133947 H        1 UNL1     0.2921
     46 H         6.12077   0.531523   6.404957 H        1 UNL1     0.2922
     47 H         2.156812   0.148679   0.402959 H        1 UNL1     0.2126
     48 H         -1.218856   -1.767157   1.851273 H        1 UNL1     0.2101
     49 H         0.95745   2.030329   1.503031 H        1 UNL1     0.2100
     50 H         -1.991831   -0.420329   3.232174 H        1 UNL1     0.2102
@<TRIPOS>BOND
     1     1     2    1
     2     1     6    1
     3     2     3    1
     4     3     4    1
     5     3    29    1
     6     3    33    1
     7     4     5    1
     8     5     6    1
     9     5     7    1
    10     5    35    1
    11     7     8    1
    12     8     9   ar
    13     8    13   ar
    14     9    10   ar
    15     9    36    1
    16    10    11   ar
    17    10    26    1
    18    11    12   ar
    19    11    14    1
    20    12    13   ar
    21    12    17    1
    22    13    37    1
    23    14    15    1
    24    14    25    2
    25    15    16    1
    26    15    38    1
    27    15    39    1
    28    16    17    1
    29    16    18    1
    30    16    40    1
    31    18    19   ar
    32    18    23   ar
    33    19    20   ar
    34    19    41    1
    35    20    21   ar
    36    20    42    1
    37    21    22   ar
    38    21    24    1
    39    22    23   ar
    40    22    43    1
    41    23    44    1
    42    24    45    1
    43    26    46    1
    44    27    47    1
    45    28    48    1
    46    29    49    1
    47    30    50    1
    48     1    31    1
    49     1    27    1
    50     2    32    1
    51     2    28    1
    52     4    34    1
    53     4    30    1
