@<TRIPOS>MOLECULE
*****
 50 53 0 0 0
SMALL
GASTEIGER

@<TRIPOS>ATOM
     1 C         -0.563803   1.10002   1.800802 C.3        1 UNL1     0.1889
     2 C         0.27867   0.026468   1.060756 C.3        1 UNL1     0.1342
     3 C         0.166702   -1.390573   1.643785 C.3        1 UNL1     0.1174
     4 C         0.012153   -1.39526   3.166681 C.3        1 UNL1     0.1456
     5 C         -1.036447   -0.380007   3.656642 C.3        1 UNL1     0.2326
     6 O         -0.694833   0.928246   3.204269 O.3        1 UNL1     -0.3076
     7 O         -2.389121   -0.753837   3.337513 O.3        1 UNL1     -0.4605
     8 C         -3.369755   0.152644   3.698316 C.ar        1 UNL1     0.1310
     9 C         -3.14263   1.397162   4.295718 C.ar        1 UNL1     0.0226
     10 C         -4.204375   2.254238   4.608798 C.ar        1 UNL1     0.1343
     11 C         -5.518594   1.897316   4.310003 C.ar        1 UNL1     0.1007
     12 C         -5.761253   0.639787   3.750968 C.ar        1 UNL1     0.1389
     13 C         -4.693712   -0.222922   3.438686 C.ar        1 UNL1     0.0229
     14 C         -6.670606   2.799033   4.542225 C.2        1 UNL1     0.1740
     15 C         -7.977149   2.346503   3.959377 C.3        1 UNL1     0.0520
     16 C         -8.103287   0.843741   4.168551 C.3        1 UNL1     0.1322
     17 O         -7.022061   0.14258   3.515564 O.3        1 UNL1     -0.4828
     18 C         -8.330311   0.441664   5.627838 C.ar        1 UNL1     -0.0067
     19 C         -9.577676   -0.090891   6.013428 C.ar        1 UNL1     -0.0516
     20 C         -9.83447   -0.424586   7.348594 C.ar        1 UNL1     -0.0198
     21 C         -8.856905   -0.224055   8.306707 C.ar        1 UNL1     0.1169
     22 C         -7.607182   0.267348   7.95237 C.ar        1 UNL1     -0.0198
     23 C         -7.343827   0.583836   6.614261 C.ar        1 UNL1     -0.0516
     24 O         -9.156209   -0.525268   9.602889 O.3        1 UNL1     -0.5068
     25 O         -6.574524   3.888545   5.10099 O.2        1 UNL1     -0.2917
     26 O         -3.915355   3.453621   5.191492 O.3        1 UNL1     -0.5058
     27 O         -1.815738   1.359082   1.185716 O.3        1 UNL1     -0.3648
     28 O         1.665045   0.408848   1.127518 O.3        1 UNL1     -0.3841
     29 O         -0.859636   -2.131897   0.981063 O.3        1 UNL1     -0.3863
     30 O         1.283978   -1.077997   3.772894 O.3        1 UNL1     -0.3829
     31 H         -0.017299   2.044941   1.708404 H        1 UNL1     0.0937
     32 H         0.0   -0.0   0.0 H        1 UNL1     0.0671
     33 H         1.102175   -1.921115   1.417651 H        1 UNL1     0.0649
     34 H         -0.266091   -2.397379   3.511265 H        1 UNL1     0.0683
     35 H         -0.916849   -0.381706   4.747317 H        1 UNL1     0.1085
     36 H         -2.140309   1.756269   4.501914 H        1 UNL1     0.0691
     37 H         -4.909304   -1.197044   3.004982 H        1 UNL1     0.0691
     38 H         -7.968897   2.597564   2.893343 H        1 UNL1     0.0385
     39 H         -8.793496   2.90071   4.434992 H        1 UNL1     0.0385
     40 H         -9.005179   0.517009   3.633428 H        1 UNL1     0.0789
     41 H         -10.364642   -0.249239   5.281813 H        1 UNL1     0.0623
     42 H         -10.804402   -0.823344   7.635362 H        1 UNL1     0.0654
     43 H         -6.829344   0.414165   8.692182 H        1 UNL1     0.0654
     44 H         -6.353044   0.955622   6.371424 H        1 UNL1     0.0623
     45 H         -8.776284   -1.394106   9.811443 H        1 UNL1     0.2921
     46 H         -4.521838   4.131692   4.854135 H        1 UNL1     0.2922
     47 H         -1.82143   2.245542   0.798395 H        1 UNL1     0.2126
     48 H         2.170802   -0.40485   1.316825 H        1 UNL1     0.2101
     49 H         -1.364285   -2.64874   1.629134 H        1 UNL1     0.2100
     50 H         1.255005   -0.142548   4.062392 H        1 UNL1     0.2102
@<TRIPOS>BOND
     1     1     2    1
     2     1     6    1
     3     2     3    1
     4     3     4    1
     5     3    29    1
     6     3    33    1
     7     4     5    1
     8     5     6    1
     9     5     7    1
    10     5    35    1
    11     7     8    1
    12     8     9   ar
    13     8    13   ar
    14     9    10   ar
    15     9    36    1
    16    10    11   ar
    17    10    26    1
    18    11    12   ar
    19    11    14    1
    20    12    13   ar
    21    12    17    1
    22    13    37    1
    23    14    15    1
    24    14    25    2
    25    15    16    1
    26    15    38    1
    27    15    39    1
    28    16    17    1
    29    16    18    1
    30    16    40    1
    31    18    19   ar
    32    18    23   ar
    33    19    20   ar
    34    19    41    1
    35    20    21   ar
    36    20    42    1
    37    21    22   ar
    38    21    24    1
    39    22    23   ar
    40    22    43    1
    41    23    44    1
    42    24    45    1
    43    26    46    1
    44    27    47    1
    45    28    48    1
    46    29    49    1
    47    30    50    1
    48     1    31    1
    49     1    27    1
    50     2    32    1
    51     2    28    1
    52     4    34    1
    53     4    30    1
