@<TRIPOS>MOLECULE
*****
 50 53 0 0 0
SMALL
GASTEIGER

@<TRIPOS>ATOM
     1 C         -2.160361   -0.18067   -0.266462 C.3        1 UNL1     0.1889
     2 C         -0.736761   0.129011   -0.802559 C.3        1 UNL1     0.1342
     3 C         -0.572153   1.529006   -1.413611 C.3        1 UNL1     0.1174
     4 C         -1.830232   2.011112   -2.140197 C.3        1 UNL1     0.1456
     5 C         -3.11141   1.780889   -1.318038 C.3        1 UNL1     0.2326
     6 O         -3.2363   0.399137   -0.989356 O.3        1 UNL1     -0.3076
     7 O         -3.221614   2.646913   -0.173845 O.3        1 UNL1     -0.4605
     8 C         -4.505872   3.009306   0.190686 C.ar        1 UNL1     0.1310
     9 C         -5.401249   3.730921   -0.606102 C.ar        1 UNL1     0.0226
     10 C         -6.690335   4.035206   -0.152703 C.ar        1 UNL1     0.1343
     11 C         -7.123911   3.604241   1.100342 C.ar        1 UNL1     0.1007
     12 C         -6.224993   2.918355   1.921493 C.ar        1 UNL1     0.1389
     13 C         -4.927994   2.614813   1.466424 C.ar        1 UNL1     0.0229
     14 C         -8.502424   3.825164   1.595365 C.2        1 UNL1     0.1740
     15 C         -8.860939   3.104236   2.861571 C.3        1 UNL1     0.0520
     16 C         -7.66896   3.168441   3.80657 C.3        1 UNL1     0.1322
     17 O         -6.510092   2.542024   3.213531 O.3        1 UNL1     -0.4828
     18 C         -7.411867   4.564008   4.380173 C.ar        1 UNL1     -0.0067
     19 C         -6.46235   4.725343   5.410029 C.ar        1 UNL1     -0.0516
     20 C         -6.237154   5.979778   5.989375 C.ar        1 UNL1     -0.0198
     21 C         -6.958671   7.076806   5.553749 C.ar        1 UNL1     0.1169
     22 C         -7.876526   6.956019   4.518476 C.ar        1 UNL1     -0.0198
     23 C         -8.088644   5.70524   3.926348 C.ar        1 UNL1     -0.0516
     24 O         -6.739425   8.274996   6.167487 O.3        1 UNL1     -0.5068
     25 O         -9.341611   4.484404   0.987373 O.2        1 UNL1     -0.2917
     26 O         -7.514484   4.74303   -0.978142 O.3        1 UNL1     -0.5058
     27 O         -2.295926   0.026737   1.13046 O.3        1 UNL1     -0.3648
     28 O         -0.418522   -0.827251   -1.830662 O.3        1 UNL1     -0.3841
     29 O         -0.108896   2.459152   -0.432616 O.3        1 UNL1     -0.3863
     30 O         -1.951496   1.307149   -3.395355 O.3        1 UNL1     -0.3829
     31 H         -2.315891   -1.257342   -0.395558 H        1 UNL1     0.0937
     32 H         0.0   0.0   0.0 H        1 UNL1     0.0671
     33 H         0.227841   1.474935   -2.165147 H        1 UNL1     0.0649
     34 H         -1.739631   3.076813   -2.377839 H        1 UNL1     0.0683
     35 H         -3.921673   2.016412   -2.01938 H        1 UNL1     0.1085
     36 H         -5.143805   4.045801   -1.611435 H        1 UNL1     0.0691
     37 H         -4.246862   2.080696   2.125416 H        1 UNL1     0.0691
     38 H         -9.099723   2.068662   2.596812 H        1 UNL1     0.0385
     39 H         -9.757177   3.562119   3.293864 H        1 UNL1     0.0385
     40 H         -7.908651   2.537659   4.673277 H        1 UNL1     0.0789
     41 H         -5.889691   3.878085   5.775907 H        1 UNL1     0.0623
     42 H         -5.510812   6.089046   6.790935 H        1 UNL1     0.0654
     43 H         -8.436124   7.811469   4.159359 H        1 UNL1     0.0654
     44 H         -8.805549   5.649457   3.112849 H        1 UNL1     0.0623
     45 H         -6.332774   8.106428   7.032898 H        1 UNL1     0.2921
     46 H         -8.397737   4.341449   -0.975382 H        1 UNL1     0.2922
     47 H         -2.548893   0.943072   1.309899 H        1 UNL1     0.2126
     48 H         -0.098311   -0.316044   -2.598688 H        1 UNL1     0.2101
     49 H         -0.857523   2.964128   -0.077157 H        1 UNL1     0.2100
     50 H         -2.749855   1.642695   -3.853332 H        1 UNL1     0.2102
@<TRIPOS>BOND
     1     1     2    1
     2     1     6    1
     3     2     3    1
     4     3     4    1
     5     3    29    1
     6     3    33    1
     7     4     5    1
     8     5     6    1
     9     5     7    1
    10     5    35    1
    11     7     8    1
    12     8     9   ar
    13     8    13   ar
    14     9    10   ar
    15     9    36    1
    16    10    11   ar
    17    10    26    1
    18    11    12   ar
    19    11    14    1
    20    12    13   ar
    21    12    17    1
    22    13    37    1
    23    14    15    1
    24    14    25    2
    25    15    16    1
    26    15    38    1
    27    15    39    1
    28    16    17    1
    29    16    18    1
    30    16    40    1
    31    18    19   ar
    32    18    23   ar
    33    19    20   ar
    34    19    41    1
    35    20    21   ar
    36    20    42    1
    37    21    22   ar
    38    21    24    1
    39    22    23   ar
    40    22    43    1
    41    23    44    1
    42    24    45    1
    43    26    46    1
    44    27    47    1
    45    28    48    1
    46    29    49    1
    47    30    50    1
    48     1    31    1
    49     1    27    1
    50     2    32    1
    51     2    28    1
    52     4    34    1
    53     4    30    1
