@<TRIPOS>MOLECULE
*****
 50 53 0 0 0
SMALL
GASTEIGER

@<TRIPOS>ATOM
     1 C         -0.356169   -1.339015   1.688486 C.3        1 UNL1     0.1889
     2 C         -0.475273   -0.97132   0.184972 C.3        1 UNL1     0.1342
     3 C         -1.91334   -0.936405   -0.354665 C.3        1 UNL1     0.1174
     4 C         -2.815619   -1.990443   0.291875 C.3        1 UNL1     0.1456
     5 C         -2.671481   -2.031069   1.824173 C.3        1 UNL1     0.2326
     6 O         -1.311006   -2.268957   2.178272 O.3        1 UNL1     -0.3076
     7 O         -3.235356   -0.882804   2.483606 O.3        1 UNL1     -0.4605
     8 C         -3.753396   -1.103046   3.747194 C.ar        1 UNL1     0.1310
     9 C         -4.584388   -2.169218   4.107792 C.ar        1 UNL1     0.0226
     10 C         -5.044993   -2.31552   5.421695 C.ar        1 UNL1     0.1343
     11 C         -4.666034   -1.411535   6.41318 C.ar        1 UNL1     0.1007
     12 C         -3.869946   -0.319871   6.056393 C.ar        1 UNL1     0.1389
     13 C         -3.4091   -0.17152   4.734635 C.ar        1 UNL1     0.0229
     14 C         -5.054893   -1.565094   7.834222 C.2        1 UNL1     0.1740
     15 C         -4.378823   -0.633365   8.796698 C.3        1 UNL1     0.0520
     16 C         -4.289919   0.743323   8.152661 C.3        1 UNL1     0.1322
     17 O         -3.526524   0.687923   6.927414 O.3        1 UNL1     -0.4828
     18 C         -5.640088   1.453289   8.027294 C.ar        1 UNL1     -0.0067
     19 C         -6.006721   2.031399   6.794581 C.ar        1 UNL1     -0.0516
     20 C         -7.213007   2.728819   6.65878 C.ar        1 UNL1     -0.0198
     21 C         -8.055985   2.861152   7.74768 C.ar        1 UNL1     0.1169
     22 C         -7.738181   2.274375   8.965684 C.ar        1 UNL1     -0.0198
     23 C         -6.54061   1.561149   9.09679 C.ar        1 UNL1     -0.0516
     24 O         -9.204333   3.579557   7.587701 O.3        1 UNL1     -0.5068
     25 O         -5.816182   -2.441165   8.235997 O.2        1 UNL1     -0.2917
     26 O         -5.853549   -3.376648   5.707755 O.3        1 UNL1     -0.5058
     27 O         -0.240843   -0.209583   2.539292 O.3        1 UNL1     -0.3648
     28 O         0.246761   -1.951938   -0.582987 O.3        1 UNL1     -0.3841
     29 O         -2.454986   0.383251   -0.269458 O.3        1 UNL1     -0.3863
     30 O         -2.481608   -3.290786   -0.240322 O.3        1 UNL1     -0.3829
     31 H         0.597571   -1.86468   1.807374 H        1 UNL1     0.0937
     32 H         0.0   0.0   0.0 H        1 UNL1     0.0671
     33 H         -1.874265   -1.166983   -1.428456 H        1 UNL1     0.0649
     34 H         -3.862268   -1.796962   0.032081 H        1 UNL1     0.0683
     35 H         -3.238559   -2.922692   2.119656 H        1 UNL1     0.1085
     36 H         -4.869052   -2.936321   3.396005 H        1 UNL1     0.0691
     37 H         -2.791434   0.687724   4.482282 H        1 UNL1     0.0691
     38 H         -3.382228   -1.037452   9.004157 H        1 UNL1     0.0385
     39 H         -4.942962   -0.615678   9.735427 H        1 UNL1     0.0385
     40 H         -3.690202   1.375448   8.821449 H        1 UNL1     0.0789
     41 H         -5.358063   1.94937   5.927307 H        1 UNL1     0.0623
     42 H         -7.478934   3.180299   5.706173 H        1 UNL1     0.0654
     43 H         -8.398157   2.359026   9.820772 H        1 UNL1     0.0654
     44 H         -6.329202   1.106758   10.059951 H        1 UNL1     0.0623
     45 H         -8.966158   4.486334   7.335223 H        1 UNL1     0.2921
     46 H         -5.458532   -3.901023   6.422181 H        1 UNL1     0.2922
     47 H         0.510258   0.337301   2.269804 H        1 UNL1     0.2126
     48 H         1.178967   -1.900545   -0.296485 H        1 UNL1     0.2101
     49 H         -2.005975   0.965789   -0.902572 H        1 UNL1     0.2100
     50 H         -2.710589   -3.294628   -1.192827 H        1 UNL1     0.2102
@<TRIPOS>BOND
     1     1     2    1
     2     1     6    1
     3     2     3    1
     4     3     4    1
     5     3    29    1
     6     3    33    1
     7     4     5    1
     8     5     6    1
     9     5     7    1
    10     5    35    1
    11     7     8    1
    12     8     9   ar
    13     8    13   ar
    14     9    10   ar
    15     9    36    1
    16    10    11   ar
    17    10    26    1
    18    11    12   ar
    19    11    14    1
    20    12    13   ar
    21    12    17    1
    22    13    37    1
    23    14    15    1
    24    14    25    2
    25    15    16    1
    26    15    38    1
    27    15    39    1
    28    16    17    1
    29    16    18    1
    30    16    40    1
    31    18    19   ar
    32    18    23   ar
    33    19    20   ar
    34    19    41    1
    35    20    21   ar
    36    20    42    1
    37    21    22   ar
    38    21    24    1
    39    22    23   ar
    40    22    43    1
    41    23    44    1
    42    24    45    1
    43    26    46    1
    44    27    47    1
    45    28    48    1
    46    29    49    1
    47    30    50    1
    48     1    31    1
    49     1    27    1
    50     2    32    1
    51     2    28    1
    52     4    34    1
    53     4    30    1
