@<TRIPOS>MOLECULE
*****
 50 53 0 0 0
SMALL
GASTEIGER

@<TRIPOS>ATOM
     1 C         2.06601   0.032939   0.708041 C.3        1 UNL1     0.1889
     2 C         0.661628   -0.622103   0.615466 C.3        1 UNL1     0.1342
     3 C         -0.014172   -0.884363   1.97008 C.3        1 UNL1     0.1174
     4 C         0.983112   -1.265899   3.066881 C.3        1 UNL1     0.1456
     5 C         2.212465   -0.339475   3.095063 C.3        1 UNL1     0.2326
     6 O         2.857418   -0.348859   1.823522 O.3        1 UNL1     -0.3076
     7 O         1.919998   0.986744   3.57143 O.3        1 UNL1     -0.4605
     8 C         0.58199   1.335717   3.609905 C.ar        1 UNL1     0.1310
     9 C         -0.487412   0.478634   3.328679 C.ar        1 UNL1     0.0226
     10 C         -1.812343   0.92305   3.412066 C.ar        1 UNL1     0.1343
     11 C         -2.101053   2.230059   3.802215 C.ar        1 UNL1     0.1007
     12 C         -1.040517   3.106821   4.045801 C.ar        1 UNL1     0.1389
     13 C         0.291667   2.660459   3.959321 C.ar        1 UNL1     0.0229
     14 C         -3.48361   2.728268   3.987899 C.2        1 UNL1     0.1740
     15 C         -3.606041   4.082194   4.623072 C.3        1 UNL1     0.0520
     16 C         -2.518491   4.982093   4.052658 C.3        1 UNL1     0.1322
     17 O         -1.207783   4.442082   4.331052 O.3        1 UNL1     -0.4828
     18 C         -2.746135   5.372777   2.590376 C.ar        1 UNL1     -0.0067
     19 C         -3.690167   6.373022   2.279688 C.ar        1 UNL1     -0.0516
     20 C         -3.956899   6.720902   0.950103 C.ar        1 UNL1     -0.0198
     21 C         -3.293098   6.072245   -0.075782 C.ar        1 UNL1     0.1169
     22 C         -2.333703   5.106552   0.199608 C.ar        1 UNL1     -0.0198
     23 C         -2.05342   4.771474   1.529728 C.ar        1 UNL1     -0.0516
     24 O         -3.606482   6.411098   -1.359281 O.3        1 UNL1     -0.5068
     25 O         -4.48266   2.06477   3.723033 O.2        1 UNL1     -0.2917
     26 O         -2.809471   0.03747   3.123851 O.3        1 UNL1     -0.5058
     27 O         2.04525   1.441298   0.538094 O.3        1 UNL1     -0.3648
     28 O         0.793519   -1.891723   -0.0504 O.3        1 UNL1     -0.3841
     29 O         -0.850829   0.213397   2.340299 O.3        1 UNL1     -0.3863
     30 O         1.429085   -2.622381   2.850656 O.3        1 UNL1     -0.3829
     31 H         2.639451   -0.333819   -0.15029 H        1 UNL1     0.0937
     32 H         -0.0   0.0   0.0 H        1 UNL1     0.0671
     33 H         -0.692947   -1.73972   1.846187 H        1 UNL1     0.0649
     34 H         0.490213   -1.242612   4.045098 H        1 UNL1     0.0683
     35 H         2.89493   -0.827021   3.802466 H        1 UNL1     0.1085
     36 H         -0.330929   -0.563936   3.074352 H        1 UNL1     0.0691
     37 H         1.099377   3.363071   4.152793 H        1 UNL1     0.0691
     38 H         -3.485213   3.953089   5.703933 H        1 UNL1     0.0385
     39 H         -4.610487   4.47696   4.435919 H        1 UNL1     0.0385
     40 H         -2.551606   5.925621   4.614065 H        1 UNL1     0.0789
     41 H         -4.231133   6.890539   3.06657 H        1 UNL1     0.0623
     42 H         -4.695718   7.485476   0.722985 H        1 UNL1     0.0654
     43 H         -1.797132   4.602973   -0.595634 H        1 UNL1     0.0654
     44 H         -1.290351   4.020086   1.708574 H        1 UNL1     0.0623
     45 H         -3.469512   5.63325   -1.924 H        1 UNL1     0.2921
     46 H         -3.669878   0.472912   3.231098 H        1 UNL1     0.2922
     47 H         2.7749   1.720484   -0.032455 H        1 UNL1     0.2126
     48 H         0.783792   -2.575527   0.646772 H        1 UNL1     0.2101
     49 H         -0.523437   1.030391   1.931484 H        1 UNL1     0.2100
     50 H         1.885993   -2.922734   3.663513 H        1 UNL1     0.2102
@<TRIPOS>BOND
     1     1     2    1
     2     1     6    1
     3     2     3    1
     4     3     4    1
     5     3    29    1
     6     3    33    1
     7     4     5    1
     8     5     6    1
     9     5     7    1
    10     5    35    1
    11     7     8    1
    12     8     9   ar
    13     8    13   ar
    14     9    10   ar
    15     9    36    1
    16    10    11   ar
    17    10    26    1
    18    11    12   ar
    19    11    14    1
    20    12    13   ar
    21    12    17    1
    22    13    37    1
    23    14    15    1
    24    14    25    2
    25    15    16    1
    26    15    38    1
    27    15    39    1
    28    16    17    1
    29    16    18    1
    30    16    40    1
    31    18    19   ar
    32    18    23   ar
    33    19    20   ar
    34    19    41    1
    35    20    21   ar
    36    20    42    1
    37    21    22   ar
    38    21    24    1
    39    22    23   ar
    40    22    43    1
    41    23    44    1
    42    24    45    1
    43    26    46    1
    44    27    47    1
    45    28    48    1
    46    29    49    1
    47    30    50    1
    48     1    31    1
    49     1    27    1
    50     2    32    1
    51     2    28    1
    52     4    34    1
    53     4    30    1
