@<TRIPOS>MOLECULE
*****
 50 53 0 0 0
SMALL
GASTEIGER

@<TRIPOS>ATOM
     1 C         -1.191975   -0.048196   1.829666 C.3        1 UNL1     0.1889
     2 C         -0.679894   0.663574   0.548612 C.3        1 UNL1     0.1342
     3 C         0.023826   2.006198   0.798822 C.3        1 UNL1     0.1174
     4 C         -0.584606   2.786606   1.966679 C.3        1 UNL1     0.1456
     5 C         -0.816947   1.905769   3.20785 C.3        1 UNL1     0.2326
     6 O         -1.652696   0.801022   2.870319 O.3        1 UNL1     -0.3076
     7 O         0.400101   1.513551   3.868365 O.3        1 UNL1     -0.4605
     8 C         0.321081   1.354109   5.240175 C.ar        1 UNL1     0.1310
     9 C         -0.005869   2.360438   6.155438 C.ar        1 UNL1     0.0226
     10 C         -0.076911   2.095009   7.528173 C.ar        1 UNL1     0.1343
     11 C         0.154213   0.809972   8.017156 C.ar        1 UNL1     0.1007
     12 C         0.521715   -0.193849   7.117118 C.ar        1 UNL1     0.1389
     13 C         0.595665   0.073904   5.737165 C.ar        1 UNL1     0.0229
     14 C         0.01063   0.45491   9.448054 C.2        1 UNL1     0.1740
     15 C         0.077172   -1.010628   9.763203 C.3        1 UNL1     0.0520
     16 C         1.166566   -1.638981   8.905095 C.3        1 UNL1     0.1322
     17 O         0.876265   -1.466493   7.500444 O.3        1 UNL1     -0.4828
     18 C         2.584383   -1.232779   9.314385 C.ar        1 UNL1     -0.0067
     19 C         3.68821   -1.886927   8.729688 C.ar        1 UNL1     -0.0516
     20 C         4.996634   -1.572802   9.116101 C.ar        1 UNL1     -0.0198
     21 C         5.213693   -0.613773   10.089227 C.ar        1 UNL1     0.1169
     22 C         4.148643   0.071374   10.659386 C.ar        1 UNL1     -0.0198
     23 C         2.841   -0.229494   10.25988 C.ar        1 UNL1     -0.0516
     24 O         6.499747   -0.361353   10.467051 O.3        1 UNL1     -0.5068
     25 O         -0.228378   1.277609   10.328125 O.2        1 UNL1     -0.2917
     26 O         -0.39987   3.120686   8.367976 O.3        1 UNL1     -0.5058
     27 O         -0.303873   -1.040848   2.318238 O.3        1 UNL1     -0.3648
     28 O         -1.806046   0.923605   -0.309799 O.3        1 UNL1     -0.3841
     29 O         1.434741   1.822188   0.931446 O.3        1 UNL1     -0.3863
     30 O         -1.849034   3.348723   1.553234 O.3        1 UNL1     -0.3829
     31 H         -2.088276   -0.607382   1.539778 H        1 UNL1     0.0937
     32 H         0.0   0.0   0.0 H        1 UNL1     0.0671
     33 H         -0.106457   2.625636   -0.099534 H        1 UNL1     0.0649
     34 H         0.066641   3.625677   2.235451 H        1 UNL1     0.0683
     35 H         -1.395091   2.548281   3.883725 H        1 UNL1     0.1085
     36 H         -0.251201   3.366486   5.833259 H        1 UNL1     0.0691
     37 H         0.88506   -0.724616   5.057379 H        1 UNL1     0.0691
     38 H         -0.90311   -1.443059   9.536096 H        1 UNL1     0.0385
     39 H         0.267927   -1.139177   10.834121 H        1 UNL1     0.0385
     40 H         1.118007   -2.724733   9.064171 H        1 UNL1     0.0789
     41 H         3.543926   -2.649899   7.970276 H        1 UNL1     0.0623
     42 H         5.838948   -2.092672   8.666375 H        1 UNL1     0.0654
     43 H         4.308072   0.834836   11.411461 H        1 UNL1     0.0654
     44 H         2.033437   0.332835   10.718652 H        1 UNL1     0.0623
     45 H         6.558917   0.56417   10.754491 H        1 UNL1     0.2921
     46 H         -1.053587   2.814409   9.016251 H        1 UNL1     0.2922
     47 H         0.564762   -0.946619   1.902964 H        1 UNL1     0.2126
     48 H         -2.512767   1.28647   0.258186 H        1 UNL1     0.2101
     49 H         1.630457   0.888565   1.109876 H        1 UNL1     0.2100
     50 H         -2.511129   3.143119   2.245382 H        1 UNL1     0.2102
@<TRIPOS>BOND
     1     1     2    1
     2     1     6    1
     3     2     3    1
     4     3     4    1
     5     3    29    1
     6     3    33    1
     7     4     5    1
     8     5     6    1
     9     5     7    1
    10     5    35    1
    11     7     8    1
    12     8     9   ar
    13     8    13   ar
    14     9    10   ar
    15     9    36    1
    16    10    11   ar
    17    10    26    1
    18    11    12   ar
    19    11    14    1
    20    12    13   ar
    21    12    17    1
    22    13    37    1
    23    14    15    1
    24    14    25    2
    25    15    16    1
    26    15    38    1
    27    15    39    1
    28    16    17    1
    29    16    18    1
    30    16    40    1
    31    18    19   ar
    32    18    23   ar
    33    19    20   ar
    34    19    41    1
    35    20    21   ar
    36    20    42    1
    37    21    22   ar
    38    21    24    1
    39    22    23   ar
    40    22    43    1
    41    23    44    1
    42    24    45    1
    43    26    46    1
    44    27    47    1
    45    28    48    1
    46    29    49    1
    47    30    50    1
    48     1    31    1
    49     1    27    1
    50     2    32    1
    51     2    28    1
    52     4    34    1
    53     4    30    1
