@<TRIPOS>MOLECULE
*****
 50 53 0 0 0
SMALL
GASTEIGER

@<TRIPOS>ATOM
     1 C         -1.574899   -0.613109   1.383689 C.3        1 UNL1     0.1889
     2 C         -0.666284   0.466357   0.736301 C.3        1 UNL1     0.1342
     3 C         0.176949   1.276452   1.73288 C.3        1 UNL1     0.1174
     4 C         -0.544973   1.520304   3.060465 C.3        1 UNL1     0.1456
     5 C         -1.20502   0.245245   3.616274 C.3        1 UNL1     0.2326
     6 O         -2.114141   -0.289302   2.656781 O.3        1 UNL1     -0.3076
     7 O         -0.259224   -0.72498   4.101509 O.3        1 UNL1     -0.4605
     8 C         -0.679815   -2.042684   4.084589 C.ar        1 UNL1     0.1310
     9 C         0.151547   -3.160394   4.214441 C.ar        1 UNL1     0.0226
     10 C         -0.373355   -4.458171   4.201955 C.ar        1 UNL1     0.1343
     11 C         -1.746391   -4.669082   4.083084 C.ar        1 UNL1     0.1007
     12 C         -2.582338   -3.562489   3.911541 C.ar        1 UNL1     0.1389
     13 C         -2.05402   -2.2578   3.921476 C.ar        1 UNL1     0.0229
     14 C         -2.363104   -6.014295   4.148055 C.2        1 UNL1     0.1740
     15 C         -3.861313   -6.03854   4.227611 C.3        1 UNL1     0.0520
     16 C         -4.410725   -4.96855   3.294216 C.3        1 UNL1     0.1322
     17 O         -3.934446   -3.659709   3.677835 O.3        1 UNL1     -0.4828
     18 C         -4.235964   -5.297189   1.809568 C.ar        1 UNL1     -0.0067
     19 C         -3.683748   -6.539533   1.435601 C.ar        1 UNL1     -0.0516
     20 C         -3.466462   -6.852729   0.088509 C.ar        1 UNL1     -0.0198
     21 C         -3.789607   -5.931276   -0.891454 C.ar        1 UNL1     0.1169
     22 C         -4.365893   -4.712851   -0.55653 C.ar        1 UNL1     -0.0198
     23 C         -4.600362   -4.406806   0.789359 C.ar        1 UNL1     -0.0516
     24 O         -3.528702   -6.256301   -2.19018 O.3        1 UNL1     -0.5068
     25 O         -1.712461   -7.053828   4.21529 O.2        1 UNL1     -0.2917
     26 O         0.491492   -5.50543   4.331853 O.3        1 UNL1     -0.5058
     27 O         -1.005889   -1.912668   1.371066 O.3        1 UNL1     -0.3648
     28 O         -1.501429   1.398544   0.024776 O.3        1 UNL1     -0.3841
     29 O         1.46633   0.684722   1.904594 O.3        1 UNL1     -0.3863
     30 O         -1.564781   2.524551   2.867667 O.3        1 UNL1     -0.3829
     31 H         -2.460701   -0.700375   0.745084 H        1 UNL1     0.0937
     32 H         0.0   0.0   0.0 H        1 UNL1     0.0671
     33 H         0.365772   2.263374   1.28785 H        1 UNL1     0.0649
     34 H         0.158422   1.9159   3.801505 H        1 UNL1     0.0683
     35 H         -1.806982   0.605255   4.460024 H        1 UNL1     0.1085
     36 H         1.220777   -3.061197   4.366195 H        1 UNL1     0.0691
     37 H         -2.725906   -1.413159   3.784933 H        1 UNL1     0.0691
     38 H         -4.141057   -5.837277   5.267209 H        1 UNL1     0.0385
     39 H         -4.218533   -7.040155   3.965048 H        1 UNL1     0.0385
     40 H         -5.496225   -4.924051   3.456172 H        1 UNL1     0.0789
     41 H         -3.413175   -7.276225   2.186419 H        1 UNL1     0.0623
     42 H         -3.028978   -7.809301   -0.186428 H        1 UNL1     0.0654
     43 H         -4.636681   -3.990038   -1.316876 H        1 UNL1     0.0654
     44 H         -5.061848   -3.450066   1.014137 H        1 UNL1     0.0623
     45 H         -2.570692   -6.379463   -2.288996 H        1 UNL1     0.2921
     46 H         0.077664   -6.202539   4.864954 H        1 UNL1     0.2922
     47 H         -1.688257   -2.578549   1.534883 H        1 UNL1     0.2126
     48 H         -1.149601   2.289788   0.213544 H        1 UNL1     0.2101
     49 H         1.394641   -0.106903   2.461355 H        1 UNL1     0.2100
     50 H         -2.430223   2.068781   2.812926 H        1 UNL1     0.2102
@<TRIPOS>BOND
     1     1     2    1
     2     1     6    1
     3     2     3    1
     4     3     4    1
     5     3    29    1
     6     3    33    1
     7     4     5    1
     8     5     6    1
     9     5     7    1
    10     5    35    1
    11     7     8    1
    12     8     9   ar
    13     8    13   ar
    14     9    10   ar
    15     9    36    1
    16    10    11   ar
    17    10    26    1
    18    11    12   ar
    19    11    14    1
    20    12    13   ar
    21    12    17    1
    22    13    37    1
    23    14    15    1
    24    14    25    2
    25    15    16    1
    26    15    38    1
    27    15    39    1
    28    16    17    1
    29    16    18    1
    30    16    40    1
    31    18    19   ar
    32    18    23   ar
    33    19    20   ar
    34    19    41    1
    35    20    21   ar
    36    20    42    1
    37    21    22   ar
    38    21    24    1
    39    22    23   ar
    40    22    43    1
    41    23    44    1
    42    24    45    1
    43    26    46    1
    44    27    47    1
    45    28    48    1
    46    29    49    1
    47    30    50    1
    48     1    31    1
    49     1    27    1
    50     2    32    1
    51     2    28    1
    52     4    34    1
    53     4    30    1
