@<TRIPOS>MOLECULE
*****
 50 53 0 0 0
SMALL
GASTEIGER

@<TRIPOS>ATOM
     1 C         -1.160982   -0.811245   -1.66277 C.3        1 UNL1     0.1889
     2 C         0.051209   -0.024576   -1.095598 C.3        1 UNL1     0.1342
     3 C         0.187053   1.411947   -1.623247 C.3        1 UNL1     0.1174
     4 C         -0.254654   1.552624   -3.082089 C.3        1 UNL1     0.1456
     5 C         -1.599024   0.856228   -3.361496 C.3        1 UNL1     0.2326
     6 O         -1.515236   -0.522285   -3.007167 O.3        1 UNL1     -0.3076
     7 O         -2.725848   1.525778   -2.767114 O.3        1 UNL1     -0.4605
     8 C         -3.961355   1.240197   -3.319828 C.ar        1 UNL1     0.1310
     9 C         -4.811514   0.206167   -2.91324 C.ar        1 UNL1     0.0226
     10 C         -6.054428   0.007833   -3.526208 C.ar        1 UNL1     0.1343
     11 C         -6.48801   0.85433   -4.545664 C.ar        1 UNL1     0.1007
     12 C         -5.63042   1.865062   -4.988094 C.ar        1 UNL1     0.1389
     13 C         -4.37961   2.062636   -4.373382 C.ar        1 UNL1     0.0229
     14 C         -7.826194   0.742328   -5.170864 C.2        1 UNL1     0.1740
     15 C         -8.210591   1.866215   -6.087743 C.3        1 UNL1     0.0520
     16 C         -6.990548   2.254757   -6.911447 C.3        1 UNL1     0.1322
     17 O         -5.910159   2.68682   -6.055205 O.3        1 UNL1     -0.4828
     18 C         -6.593046   1.208217   -7.955224 C.ar        1 UNL1     -0.0067
     19 C         -5.614265   0.245738   -7.632987 C.ar        1 UNL1     -0.0516
     20 C         -5.193531   -0.695749   -8.579849 C.ar        1 UNL1     -0.0198
     21 C         -5.737339   -0.680584   -9.851804 C.ar        1 UNL1     0.1169
     22 C         -6.727111   0.233546   -10.188784 C.ar        1 UNL1     -0.0198
     23 C         -7.161303   1.16335   -9.236421 C.ar        1 UNL1     -0.0516
     24 O         -5.275651   -1.588599   -10.758862 O.3        1 UNL1     -0.5068
     25 O         -8.620472   -0.157833   -4.911412 O.2        1 UNL1     -0.2917
     26 O         -6.835744   -1.0194   -3.083577 O.3        1 UNL1     -0.5058
     27 O         -2.293453   -0.797907   -0.8083 O.3        1 UNL1     -0.3648
     28 O         1.256952   -0.726926   -1.449992 O.3        1 UNL1     -0.3841
     29 O         -0.471273   2.33573   -0.75413 O.3        1 UNL1     -0.3863
     30 O         0.753831   0.976044   -3.940112 O.3        1 UNL1     -0.3829
     31 H         -0.861807   -1.864509   -1.697534 H        1 UNL1     0.0937
     32 H         0.0   0.0   0.0 H        1 UNL1     0.0671
     33 H         1.25122   1.683729   -1.585785 H        1 UNL1     0.0649
     34 H         -0.334171   2.612459   -3.348223 H        1 UNL1     0.0683
     35 H         -1.697413   0.89947   -4.453434 H        1 UNL1     0.1085
     36 H         -4.556426   -0.451006   -2.08912 H        1 UNL1     0.0691
     37 H         -3.730006   2.855866   -4.737106 H        1 UNL1     0.0691
     38 H         -8.548651   2.701079   -5.46465 H        1 UNL1     0.0385
     39 H         -9.049281   1.546426   -6.715526 H        1 UNL1     0.0385
     40 H         -7.26026   3.150884   -7.48654 H        1 UNL1     0.0789
     41 H         -5.16545   0.218748   -6.644308 H        1 UNL1     0.0623
     42 H         -4.429467   -1.42527   -8.322913 H        1 UNL1     0.0654
     43 H         -7.170523   0.244591   -11.177306 H        1 UNL1     0.0654
     44 H         -7.943794   1.856102   -9.530782 H        1 UNL1     0.0623
     45 H         -4.307096   -1.618019   -10.697601 H        1 UNL1     0.2921
     46 H         -6.304564   -1.615632   -2.532427 H        1 UNL1     0.2922
     47 H         -2.043113   -1.076204   0.083742 H        1 UNL1     0.2126
     48 H         1.287713   -1.528494   -0.89297 H        1 UNL1     0.2101
     49 H         -1.35224   2.546215   -1.102538 H        1 UNL1     0.2100
     50 H         1.557154   1.533278   -3.877857 H        1 UNL1     0.2102
@<TRIPOS>BOND
     1     1     2    1
     2     1     6    1
     3     2     3    1
     4     3     4    1
     5     3    29    1
     6     3    33    1
     7     4     5    1
     8     5     6    1
     9     5     7    1
    10     5    35    1
    11     7     8    1
    12     8     9   ar
    13     8    13   ar
    14     9    10   ar
    15     9    36    1
    16    10    11   ar
    17    10    26    1
    18    11    12   ar
    19    11    14    1
    20    12    13   ar
    21    12    17    1
    22    13    37    1
    23    14    15    1
    24    14    25    2
    25    15    16    1
    26    15    38    1
    27    15    39    1
    28    16    17    1
    29    16    18    1
    30    16    40    1
    31    18    19   ar
    32    18    23   ar
    33    19    20   ar
    34    19    41    1
    35    20    21   ar
    36    20    42    1
    37    21    22   ar
    38    21    24    1
    39    22    23   ar
    40    22    43    1
    41    23    44    1
    42    24    45    1
    43    26    46    1
    44    27    47    1
    45    28    48    1
    46    29    49    1
    47    30    50    1
    48     1    31    1
    49     1    27    1
    50     2    32    1
    51     2    28    1
    52     4    34    1
    53     4    30    1
