@<TRIPOS>MOLECULE
*****
 50 53 0 0 0
SMALL
GASTEIGER

@<TRIPOS>ATOM
     1 C         -0.345671   -1.336371   1.692758 C.3        1 UNL1     0.1889
     2 C         -0.46914   -0.973642   0.18839 C.3        1 UNL1     0.1342
     3 C         -1.908162   -0.948919   -0.349262 C.3        1 UNL1     0.1174
     4 C         -2.80314   -2.00655   0.301544 C.3        1 UNL1     0.1456
     5 C         -2.656569   -2.041985   1.83374 C.3        1 UNL1     0.2326
     6 O         -1.294179   -2.270667   2.186538 O.3        1 UNL1     -0.3076
     7 O         -3.226417   -0.895284   2.490757 O.3        1 UNL1     -0.4605
     8 C         -3.748531   -1.116798   3.752445 C.ar        1 UNL1     0.1310
     9 C         -4.971802   -0.625459   4.220945 C.ar        1 UNL1     0.0226
     10 C         -5.422999   -0.920071   5.513047 C.ar        1 UNL1     0.1343
     11 C         -4.672164   -1.733652   6.360498 C.ar        1 UNL1     0.1007
     12 C         -3.429867   -2.196457   5.918578 C.ar        1 UNL1     0.1389
     13 C         -2.975196   -1.897907   4.620282 C.ar        1 UNL1     0.0229
     14 C         -5.139782   -2.145449   7.70434 C.2        1 UNL1     0.1740
     15 C         -4.313607   -3.196741   8.385346 C.3        1 UNL1     0.0520
     16 C         -2.84366   -2.898389   8.124196 C.3        1 UNL1     0.1322
     17 O         -2.561048   -2.91408   6.707526 O.3        1 UNL1     -0.4828
     18 C         -2.325863   -1.660566   8.860677 C.ar        1 UNL1     -0.0067
     19 C         -1.574528   -0.698549   8.154822 C.ar        1 UNL1     -0.0516
     20 C         -1.046016   0.421054   8.808373 C.ar        1 UNL1     -0.0198
     21 C         -1.25511   0.585911   10.165918 C.ar        1 UNL1     0.1169
     22 C         -2.019001   -0.326885   10.881539 C.ar        1 UNL1     -0.0198
     23 C         -2.563168   -1.436962   10.224526 C.ar        1 UNL1     -0.0516
     24 O         -0.693088   1.668786   10.775765 O.3        1 UNL1     -0.5068
     25 O         -6.175752   -1.72962   8.216528 O.2        1 UNL1     -0.2917
     26 O         -6.624374   -0.408959   5.909339 O.3        1 UNL1     -0.5058
     27 O         -0.235944   -0.203869   2.540217 O.3        1 UNL1     -0.3648
     28 O         0.257698   -1.952051   -0.577853 O.3        1 UNL1     -0.3841
     29 O         -2.457636   0.367683   -0.266982 O.3        1 UNL1     -0.3863
     30 O         -2.462052   -3.306352   -0.227477 O.3        1 UNL1     -0.3829
     31 H         0.611393   -1.855939   1.811744 H        1 UNL1     0.0937
     32 H         0.0   0.0   0.0 H        1 UNL1     0.0671
     33 H         -1.869232   -1.182285   -1.422456 H        1 UNL1     0.0649
     34 H         -3.851307   -1.820115   0.042721 H        1 UNL1     0.0683
     35 H         -3.217835   -2.936173   2.132549 H        1 UNL1     0.1085
     36 H         -5.627493   -0.033988   3.59138 H        1 UNL1     0.0691
     37 H         -2.003932   -2.269368   4.300661 H        1 UNL1     0.0691
     38 H         -4.600383   -4.166789   7.965475 H        1 UNL1     0.0385
     39 H         -4.551195   -3.203125   9.454593 H        1 UNL1     0.0385
     40 H         -2.265638   -3.740236   8.528802 H        1 UNL1     0.0789
     41 H         -1.388625   -0.809825   7.090534 H        1 UNL1     0.0623
     42 H         -0.4583   1.149673   8.255457 H        1 UNL1     0.0654
     43 H         -2.201588   -0.199576   11.9419 H        1 UNL1     0.0654
     44 H         -3.163682   -2.124359   10.812501 H        1 UNL1     0.0623
     45 H         0.271007   1.610617   10.6765 H        1 UNL1     0.2921
     46 H         -7.207801   -1.132521   6.187697 H        1 UNL1     0.2922
     47 H         0.508833   0.34901   2.265456 H        1 UNL1     0.2126
     48 H         1.193413   -1.880058   -0.307692 H        1 UNL1     0.2101
     49 H         -2.018953   0.94904   -0.908368 H        1 UNL1     0.2100
     50 H         -2.697601   -3.316163   -1.178336 H        1 UNL1     0.2102
@<TRIPOS>BOND
     1     1     2    1
     2     1     6    1
     3     2     3    1
     4     3     4    1
     5     3    29    1
     6     3    33    1
     7     4     5    1
     8     5     6    1
     9     5     7    1
    10     5    35    1
    11     7     8    1
    12     8     9   ar
    13     8    13   ar
    14     9    10   ar
    15     9    36    1
    16    10    11   ar
    17    10    26    1
    18    11    12   ar
    19    11    14    1
    20    12    13   ar
    21    12    17    1
    22    13    37    1
    23    14    15    1
    24    14    25    2
    25    15    16    1
    26    15    38    1
    27    15    39    1
    28    16    17    1
    29    16    18    1
    30    16    40    1
    31    18    19   ar
    32    18    23   ar
    33    19    20   ar
    34    19    41    1
    35    20    21   ar
    36    20    42    1
    37    21    22   ar
    38    21    24    1
    39    22    23   ar
    40    22    43    1
    41    23    44    1
    42    24    45    1
    43    26    46    1
    44    27    47    1
    45    28    48    1
    46    29    49    1
    47    30    50    1
    48     1    31    1
    49     1    27    1
    50     2    32    1
    51     2    28    1
    52     4    34    1
    53     4    30    1
