@<TRIPOS>MOLECULE
*****
 50 53 0 0 0
SMALL
GASTEIGER

@<TRIPOS>ATOM
     1 C         -0.435873   2.139777   0.046629 C.3        1 UNL1     0.1889
     2 C         0.260651   0.898478   -0.573027 C.3        1 UNL1     0.1342
     3 C         1.790254   1.003896   -0.671338 C.3        1 UNL1     0.1174
     4 C         2.269407   2.427843   -0.964434 C.3        1 UNL1     0.1456
     5 C         1.577062   3.478025   -0.076662 C.3        1 UNL1     0.2326
     6 O         0.162931   3.395326   -0.238721 O.3        1 UNL1     -0.3076
     7 O         1.992685   3.42834   1.30033 O.3        1 UNL1     -0.4605
     8 C         1.036017   3.009764   2.207584 C.ar        1 UNL1     0.1310
     9 C         1.286204   2.255152   3.358787 C.ar        1 UNL1     0.0226
     10 C         0.249041   1.893941   4.226959 C.ar        1 UNL1     0.1343
     11 C         -1.061378   2.299254   3.977234 C.ar        1 UNL1     0.1007
     12 C         -1.329803   3.018187   2.809386 C.ar        1 UNL1     0.1389
     13 C         -0.287164   3.379001   1.935232 C.ar        1 UNL1     0.0229
     14 C         -2.181995   2.017305   4.903989 C.2        1 UNL1     0.1740
     15 C         -3.473244   2.715431   4.592785 C.3        1 UNL1     0.0520
     16 C         -3.679714   2.696723   3.084483 C.3        1 UNL1     0.1322
     17 O         -2.596938   3.375007   2.410244 O.3        1 UNL1     -0.4828
     18 C         -4.00629   1.310215   2.524421 C.ar        1 UNL1     -0.0067
     19 C         -5.308525   0.791178   2.676067 C.ar        1 UNL1     -0.0516
     20 C         -5.628057   -0.492468   2.217682 C.ar        1 UNL1     -0.0198
     21 C         -4.654539   -1.268079   1.613929 C.ar        1 UNL1     0.1169
     22 C         -3.371929   -0.771868   1.420217 C.ar        1 UNL1     -0.0198
     23 C         -3.057007   0.518776   1.861941 C.ar        1 UNL1     -0.0516
     24 O         -4.992758   -2.527555   1.214269 O.3        1 UNL1     -0.5068
     25 O         -2.067457   1.326365   5.912933 O.2        1 UNL1     -0.2917
     26 O         0.559713   1.156288   5.331919 O.3        1 UNL1     -0.5058
     27 O         -0.719983   1.997175   1.429283 O.3        1 UNL1     -0.3648
     28 O         -0.242676   0.712531   -1.908988 O.3        1 UNL1     -0.3841
     29 O         2.412823   0.43714   0.48336 O.3        1 UNL1     -0.3863
     30 O         2.00285   2.741879   -2.348637 O.3        1 UNL1     -0.3829
     31 H         -1.421861   2.213219   -0.425085 H        1 UNL1     0.0937
     32 H         0.0   0.0   0.0 H        1 UNL1     0.0671
     33 H         2.11594   0.37908   -1.514696 H        1 UNL1     0.0649
     34 H         3.353976   2.493847   -0.823884 H        1 UNL1     0.0683
     35 H         1.891862   4.437034   -0.506873 H        1 UNL1     0.1085
     36 H         2.290828   1.956986   3.637978 H        1 UNL1     0.0691
     37 H         -0.522606   3.937944   1.032102 H        1 UNL1     0.0691
     38 H         -3.393812   3.741364   4.967855 H        1 UNL1     0.0385
     39 H         -4.288648   2.217554   5.128522 H        1 UNL1     0.0385
     40 H         -4.564273   3.312014   2.871192 H        1 UNL1     0.0789
     41 H         -6.088064   1.376652   3.154804 H        1 UNL1     0.0623
     42 H         -6.6327   -0.886025   2.35116 H        1 UNL1     0.0654
     43 H         -2.605944   -1.365049   0.935127 H        1 UNL1     0.0654
     44 H         -2.047984   0.878346   1.684669 H        1 UNL1     0.0623
     45 H         -4.201512   -3.088041   1.264284 H        1 UNL1     0.2921
     46 H         0.145215   1.554353   6.113678 H        1 UNL1     0.2922
     47 H         -1.606001   2.332422   1.625348 H        1 UNL1     0.2126
     48 H         0.432411   1.074026   -2.515049 H        1 UNL1     0.2101
     49 H         1.978619   0.765169   1.286888 H        1 UNL1     0.2100
     50 H         1.071792   2.503212   -2.538063 H        1 UNL1     0.2102
@<TRIPOS>BOND
     1     1     2    1
     2     1     6    1
     3     2     3    1
     4     3     4    1
     5     3    29    1
     6     3    33    1
     7     4     5    1
     8     5     6    1
     9     5     7    1
    10     5    35    1
    11     7     8    1
    12     8     9   ar
    13     8    13   ar
    14     9    10   ar
    15     9    36    1
    16    10    11   ar
    17    10    26    1
    18    11    12   ar
    19    11    14    1
    20    12    13   ar
    21    12    17    1
    22    13    37    1
    23    14    15    1
    24    14    25    2
    25    15    16    1
    26    15    38    1
    27    15    39    1
    28    16    17    1
    29    16    18    1
    30    16    40    1
    31    18    19   ar
    32    18    23   ar
    33    19    20   ar
    34    19    41    1
    35    20    21   ar
    36    20    42    1
    37    21    22   ar
    38    21    24    1
    39    22    23   ar
    40    22    43    1
    41    23    44    1
    42    24    45    1
    43    26    46    1
    44    27    47    1
    45    28    48    1
    46    29    49    1
    47    30    50    1
    48     1    31    1
    49     1    27    1
    50     2    32    1
    51     2    28    1
    52     4    34    1
    53     4    30    1
