@<TRIPOS>MOLECULE
*****
 50 53 0 0 0
SMALL
GASTEIGER

@<TRIPOS>ATOM
     1 C         -0.330529   -1.327295   1.702893 C.3        1 UNL1     0.1889
     2 C         -0.461759   -0.97555   0.196575 C.3        1 UNL1     0.1342
     3 C         -1.902791   -0.964324   -0.336124 C.3        1 UNL1     0.1174
     4 C         -2.788179   -2.023672   0.324927 C.3        1 UNL1     0.1456
     5 C         -2.636003   -2.047792   1.856797 C.3        1 UNL1     0.2326
     6 O         -1.270844   -2.264737   2.206285 O.3        1 UNL1     -0.3076
     7 O         -3.211434   -0.900636   2.50813 O.3        1 UNL1     -0.4605
     8 C         -3.720371   -1.115448   3.776344 C.ar        1 UNL1     0.1310
     9 C         -4.535726   -2.188742   4.151225 C.ar        1 UNL1     0.0226
     10 C         -4.987942   -2.328402   5.46876 C.ar        1 UNL1     0.1343
     11 C         -4.61584   -1.410176   6.449698 C.ar        1 UNL1     0.1007
     12 C         -3.835696   -0.311806   6.078561 C.ar        1 UNL1     0.1389
     13 C         -3.383303   -0.170169   4.753151 C.ar        1 UNL1     0.0229
     14 C         -4.995697   -1.555144   7.874074 C.2        1 UNL1     0.1740
     15 C         -4.327012   -0.605626   8.824246 C.3        1 UNL1     0.0520
     16 C         -4.259082   0.765875   8.16673 C.3        1 UNL1     0.1322
     17 O         -3.501061   0.708608   6.938237 O.3        1 UNL1     -0.4828
     18 C         -5.618917   1.457157   8.041428 C.ar        1 UNL1     -0.0067
     19 C         -5.999045   2.018688   6.805143 C.ar        1 UNL1     -0.0516
     20 C         -7.214901   2.699179   6.668802 C.ar        1 UNL1     -0.0198
     21 C         -8.054161   2.831041   7.760627 C.ar        1 UNL1     0.1169
     22 C         -7.722818   2.260075   8.98253 C.ar        1 UNL1     -0.0198
     23 C         -6.515495   1.563622   9.114371 C.ar        1 UNL1     -0.0516
     24 O         -9.212474   3.53303   7.599618 O.3        1 UNL1     -0.5068
     25 O         -5.743611   -2.43707   8.287975 O.2        1 UNL1     -0.2917
     26 O         -5.781295   -3.397077   5.768947 O.3        1 UNL1     -0.5058
     27 O         -0.225639   -0.188391   2.542347 O.3        1 UNL1     -0.3648
     28 O         0.269114   -1.954079   -0.565666 O.3        1 UNL1     -0.3841
     29 O         -2.46103   0.348998   -0.260722 O.3        1 UNL1     -0.3863
     30 O         -2.439999   -3.324631   -0.196576 O.3        1 UNL1     -0.3829
     31 H         0.630502   -1.839468   1.821963 H        1 UNL1     0.0937
     32 H         0.0   0.0   0.0 H        1 UNL1     0.0671
     33 H         -1.866012   -1.204631   -1.40786 H        1 UNL1     0.0649
     34 H         -3.838505   -1.846183   0.06858 H        1 UNL1     0.0683
     35 H         -3.190047   -2.943782   2.163582 H        1 UNL1     0.1085
     36 H         -4.813939   -2.966217   3.448195 H        1 UNL1     0.0691
     37 H         -2.778047   0.69451   4.489547 H        1 UNL1     0.0691
     38 H         -3.324269   -0.994839   9.030512 H        1 UNL1     0.0385
     39 H         -4.886716   -0.586238   9.765593 H        1 UNL1     0.0385
     40 H         -3.664311   1.412036   8.82646 H        1 UNL1     0.0789
     41 H         -5.353647   1.936738   5.935432 H        1 UNL1     0.0623
     42 H         -7.491318   3.138071   5.713303 H        1 UNL1     0.0654
     43 H         -8.379626   2.344384   9.840088 H        1 UNL1     0.0654
     44 H         -6.293502   1.121218   10.080726 H        1 UNL1     0.0623
     45 H         -9.958557   2.941439   7.789611 H        1 UNL1     0.2921
     46 H         -5.37607   -3.909419   6.48638 H        1 UNL1     0.2922
     47 H         0.516995   0.365525   2.263902 H        1 UNL1     0.2126
     48 H         1.201974   -1.887945   -0.284361 H        1 UNL1     0.2101
     49 H         -2.022704   0.931195   -0.90159 H        1 UNL1     0.2100
     50 H         -2.673586   -3.340525   -1.147837 H        1 UNL1     0.2102
@<TRIPOS>BOND
     1     1     2    1
     2     1     6    1
     3     2     3    1
     4     3     4    1
     5     3    29    1
     6     3    33    1
     7     4     5    1
     8     5     6    1
     9     5     7    1
    10     5    35    1
    11     7     8    1
    12     8     9   ar
    13     8    13   ar
    14     9    10   ar
    15     9    36    1
    16    10    11   ar
    17    10    26    1
    18    11    12   ar
    19    11    14    1
    20    12    13   ar
    21    12    17    1
    22    13    37    1
    23    14    15    1
    24    14    25    2
    25    15    16    1
    26    15    38    1
    27    15    39    1
    28    16    17    1
    29    16    18    1
    30    16    40    1
    31    18    19   ar
    32    18    23   ar
    33    19    20   ar
    34    19    41    1
    35    20    21   ar
    36    20    42    1
    37    21    22   ar
    38    21    24    1
    39    22    23   ar
    40    22    43    1
    41    23    44    1
    42    24    45    1
    43    26    46    1
    44    27    47    1
    45    28    48    1
    46    29    49    1
    47    30    50    1
    48     1    31    1
    49     1    27    1
    50     2    32    1
    51     2    28    1
    52     4    34    1
    53     4    30    1
