@<TRIPOS>MOLECULE
*****
 50 53 0 0 0
SMALL
GASTEIGER

@<TRIPOS>ATOM
     1 C         -0.269406   -1.404104   1.651278 C.3        1 UNL1     0.1889
     2 C         -0.452607   -0.985176   0.167742 C.3        1 UNL1     0.1342
     3 C         -1.910952   -0.955355   -0.314758 C.3        1 UNL1     0.1174
     4 C         -2.770948   -2.046827   0.32728 C.3        1 UNL1     0.1456
     5 C         -2.566682   -2.139542   1.850449 C.3        1 UNL1     0.2326
     6 O         -1.189936   -2.366882   2.14329 O.3        1 UNL1     -0.3076
     7 O         -3.122196   -1.025166   2.572177 O.3        1 UNL1     -0.4605
     8 C         -3.59452   -1.30064   3.842827 C.ar        1 UNL1     0.1310
     9 C         -4.399565   -2.39111   4.189352 C.ar        1 UNL1     0.0226
     10 C         -4.81371   -2.593841   5.511202 C.ar        1 UNL1     0.1343
     11 C         -4.41276   -1.723317   6.523756 C.ar        1 UNL1     0.1007
     12 C         -3.642784   -0.608   6.183183 C.ar        1 UNL1     0.1389
     13 C         -3.228688   -0.402918   4.85356 C.ar        1 UNL1     0.0229
     14 C         -4.7515   -1.936412   7.94994 C.2        1 UNL1     0.1740
     15 C         -4.054954   -1.032984   8.924718 C.3        1 UNL1     0.0520
     16 C         -4.00494   0.36841   8.331802 C.3        1 UNL1     0.1322
     17 O         -3.282703   0.370367   7.080627 O.3        1 UNL1     -0.4828
     18 C         -5.367282   1.064077   8.278945 C.ar        1 UNL1     -0.0067
     19 C         -5.774871   1.699094   7.087794 C.ar        1 UNL1     -0.0516
     20 C         -6.993514   2.384867   7.020068 C.ar        1 UNL1     -0.0198
     21 C         -7.808283   2.448988   8.136253 C.ar        1 UNL1     0.1169
     22 C         -7.449787   1.805355   9.313562 C.ar        1 UNL1     -0.0198
     23 C         -6.239773   1.103912   9.376017 C.ar        1 UNL1     -0.0516
     24 O         -8.969949   3.157798   8.043938 O.3        1 UNL1     -0.5068
     25 O         -5.487857   -2.837557   8.342623 O.2        1 UNL1     -0.2917
     26 O         -5.598911   -3.676114   5.782736 O.3        1 UNL1     -0.5058
     27 O         -0.138576   -0.303893   2.537396 O.3        1 UNL1     -0.3648
     28 O         0.254106   -1.9255   -0.66235 O.3        1 UNL1     -0.3841
     29 O         -2.469255   0.351097   -0.161099 O.3        1 UNL1     -0.3863
     30 O         -2.437789   -3.321574   -0.264088 O.3        1 UNL1     -0.3829
     31 H         0.696269   -1.91749   1.7144 H        1 UNL1     0.0937
     32 H         0.0   0.0   0.0 H        1 UNL1     0.0671
     33 H         -1.910121   -1.146865   -1.396906 H        1 UNL1     0.0649
     34 H         -3.829785   -1.861918   0.114975 H        1 UNL1     0.0683
     35 H         -3.107949   -3.050567   2.134954 H        1 UNL1     0.1085
     36 H         -4.69854   -3.134268   3.458291 H        1 UNL1     0.0691
     37 H         -2.630609   0.473732   4.614229 H        1 UNL1     0.0691
     38 H         -3.046984   -1.43101   9.083145 H        1 UNL1     0.0385
     39 H         -4.587266   -1.058937   9.881665 H        1 UNL1     0.0385
     40 H         -3.390889   0.982663   9.004227 H        1 UNL1     0.0789
     41 H         -5.148979   1.671029   6.200596 H        1 UNL1     0.0623
     42 H         -7.29116   2.88057   6.099364 H        1 UNL1     0.0654
     43 H         -8.087357   1.836497   10.18903 H        1 UNL1     0.0654
     44 H         -5.996296   0.603966   10.30855 H        1 UNL1     0.0623
     45 H         -8.750276   4.081593   7.841297 H        1 UNL1     0.2921
     46 H         -5.174809   -4.220542   6.464754 H        1 UNL1     0.2922
     47 H         0.586624   0.270098   2.253709 H        1 UNL1     0.2126
     48 H         1.198581   -1.853838   -0.424518 H        1 UNL1     0.2101
     49 H         -2.060402   0.961384   -0.795279 H        1 UNL1     0.2100
     50 H         -2.708737   -3.297374   -1.205212 H        1 UNL1     0.2102
@<TRIPOS>BOND
     1     1     2    1
     2     1     6    1
     3     2     3    1
     4     3     4    1
     5     3    29    1
     6     3    33    1
     7     4     5    1
     8     5     6    1
     9     5     7    1
    10     5    35    1
    11     7     8    1
    12     8     9   ar
    13     8    13   ar
    14     9    10   ar
    15     9    36    1
    16    10    11   ar
    17    10    26    1
    18    11    12   ar
    19    11    14    1
    20    12    13   ar
    21    12    17    1
    22    13    37    1
    23    14    15    1
    24    14    25    2
    25    15    16    1
    26    15    38    1
    27    15    39    1
    28    16    17    1
    29    16    18    1
    30    16    40    1
    31    18    19   ar
    32    18    23   ar
    33    19    20   ar
    34    19    41    1
    35    20    21   ar
    36    20    42    1
    37    21    22   ar
    38    21    24    1
    39    22    23   ar
    40    22    43    1
    41    23    44    1
    42    24    45    1
    43    26    46    1
    44    27    47    1
    45    28    48    1
    46    29    49    1
    47    30    50    1
    48     1    31    1
    49     1    27    1
    50     2    32    1
    51     2    28    1
    52     4    34    1
    53     4    30    1
