@<TRIPOS>MOLECULE
*****
 50 53 0 0 0
SMALL
GASTEIGER

@<TRIPOS>ATOM
     1 C         -0.370744   -1.397939   1.636802 C.3        1 UNL1     0.1889
     2 C         -0.487834   -0.971311   0.148777 C.3        1 UNL1     0.1342
     3 C         -1.926347   -0.896661   -0.385613 C.3        1 UNL1     0.1174
     4 C         -2.841361   -1.962659   0.222264 C.3        1 UNL1     0.1456
     5 C         -2.694818   -2.063924   1.751524 C.3        1 UNL1     0.2326
     6 O         -1.336957   -2.333235   2.092924 O.3        1 UNL1     -0.3076
     7 O         -3.242045   -0.934414   2.455847 O.3        1 UNL1     -0.4605
     8 C         -3.771196   -1.198171   3.706431 C.ar        1 UNL1     0.1310
     9 C         -4.614689   -2.2694   4.019941 C.ar        1 UNL1     0.0226
     10 C         -5.08608   -2.461766   5.324045 C.ar        1 UNL1     0.1343
     11 C         -4.705831   -1.600327   6.352235 C.ar        1 UNL1     0.1007
     12 C         -3.897029   -0.503436   6.043278 C.ar        1 UNL1     0.1389
     13 C         -3.425321   -0.308723   4.731405 C.ar        1 UNL1     0.0229
     14 C         -5.106319   -1.804759   7.763607 C.2        1 UNL1     0.1740
     15 C         -4.428511   -0.917338   8.765909 C.3        1 UNL1     0.0520
     16 C         -4.322115   0.482216   8.17609 C.3        1 UNL1     0.1322
     17 O         -3.550478   0.466712   6.954859 O.3        1 UNL1     -0.4828
     18 C         -5.664652   1.209435   8.068995 C.ar        1 UNL1     -0.0067
     19 C         -5.687009   2.572987   7.710612 C.ar        1 UNL1     -0.0516
     20 C         -6.893814   3.280009   7.649746 C.ar        1 UNL1     -0.0198
     21 C         -8.081611   2.63818   7.951443 C.ar        1 UNL1     0.1169
     22 C         -8.09532   1.287666   8.275112 C.ar        1 UNL1     -0.0198
     23 C         -6.89056   0.575795   8.318086 C.ar        1 UNL1     -0.0516
     24 O         -9.233053   3.368581   7.918331 O.3        1 UNL1     -0.5068
     25 O         -5.878632   -2.688295   8.126073 O.2        1 UNL1     -0.2917
     26 O         -5.906554   -3.5253   5.563424 O.3        1 UNL1     -0.5058
     27 O         -0.238713   -0.303593   2.529976 O.3        1 UNL1     -0.3648
     28 O         0.219565   -1.931246   -0.657955 O.3        1 UNL1     -0.3841
     29 O         -2.450169   0.425824   -0.248579 O.3        1 UNL1     -0.3863
     30 O         -2.525761   -3.245953   -0.360183 O.3        1 UNL1     -0.3829
     31 H         0.576125   -1.940377   1.73313 H        1 UNL1     0.0937
     32 H         0.0   0.0   0.0 H        1 UNL1     0.0671
     33 H         -1.892427   -1.08639   -1.467543 H        1 UNL1     0.0649
     34 H         -3.885834   -1.745496   -0.027369 H        1 UNL1     0.0683
     35 H         -3.273172   -2.958623   2.014008 H        1 UNL1     0.1085
     36 H         -4.901382   -3.005746   3.27716 H        1 UNL1     0.0691
     37 H         -2.797852   0.553624   4.516616 H        1 UNL1     0.0691
     38 H         -3.437255   -1.338681   8.964421 H        1 UNL1     0.0385
     39 H         -4.999199   -0.930398   9.700748 H        1 UNL1     0.0385
     40 H         -3.721343   1.082316   8.872849 H        1 UNL1     0.0789
     41 H         -4.767267   3.101823   7.478109 H        1 UNL1     0.0623
     42 H         -6.896734   4.334153   7.383696 H        1 UNL1     0.0654
     43 H         -9.021377   0.771504   8.498507 H        1 UNL1     0.0654
     44 H         -6.939543   -0.480532   8.564299 H        1 UNL1     0.0623
     45 H         -9.189819   4.041146   8.617262 H        1 UNL1     0.2921
     46 H         -5.534076   -4.067085   6.276965 H        1 UNL1     0.2922
     47 H         0.506439   0.254746   2.267553 H        1 UNL1     0.2126
     48 H         1.171731   -1.779325   -0.502933 H        1 UNL1     0.2101
     49 H         -2.134508   0.98301   -0.977754 H        1 UNL1     0.2100
     50 H         -2.782845   -3.219604   -1.30513 H        1 UNL1     0.2102
@<TRIPOS>BOND
     1     1     2    1
     2     1     6    1
     3     2     3    1
     4     3     4    1
     5     3    29    1
     6     3    33    1
     7     4     5    1
     8     5     6    1
     9     5     7    1
    10     5    35    1
    11     7     8    1
    12     8     9   ar
    13     8    13   ar
    14     9    10   ar
    15     9    36    1
    16    10    11   ar
    17    10    26    1
    18    11    12   ar
    19    11    14    1
    20    12    13   ar
    21    12    17    1
    22    13    37    1
    23    14    15    1
    24    14    25    2
    25    15    16    1
    26    15    38    1
    27    15    39    1
    28    16    17    1
    29    16    18    1
    30    16    40    1
    31    18    19   ar
    32    18    23   ar
    33    19    20   ar
    34    19    41    1
    35    20    21   ar
    36    20    42    1
    37    21    22   ar
    38    21    24    1
    39    22    23   ar
    40    22    43    1
    41    23    44    1
    42    24    45    1
    43    26    46    1
    44    27    47    1
    45    28    48    1
    46    29    49    1
    47    30    50    1
    48     1    31    1
    49     1    27    1
    50     2    32    1
    51     2    28    1
    52     4    34    1
    53     4    30    1
