@<TRIPOS>MOLECULE
*****
 50 53 0 0 0
SMALL
GASTEIGER

@<TRIPOS>ATOM
     1 C         0.199477   -2.092322   -0.594307 C.3        1 UNL1     0.1889
     2 C         0.111826   -0.978441   0.483435 C.3        1 UNL1     0.1342
     3 C         1.304759   -0.926285   1.450212 C.3        1 UNL1     0.1174
     4 C         1.873284   -2.311848   1.766616 C.3        1 UNL1     0.1456
     5 C         2.065242   -3.173225   0.505051 C.3        1 UNL1     0.2326
     6 O         0.826735   -3.300342   -0.189795 O.3        1 UNL1     -0.3076
     7 O         3.142928   -2.724655   -0.336792 O.3        1 UNL1     -0.4605
     8 C         3.815219   -3.709838   -1.037482 C.ar        1 UNL1     0.1310
     9 C         4.528705   -4.768182   -0.464642 C.ar        1 UNL1     0.0226
     10 C         5.163521   -5.728285   -1.261582 C.ar        1 UNL1     0.1343
     11 C         5.080159   -5.666624   -2.651938 C.ar        1 UNL1     0.1007
     12 C         4.405069   -4.591555   -3.236117 C.ar        1 UNL1     0.1389
     13 C         3.769083   -3.624839   -2.43461 C.ar        1 UNL1     0.0229
     14 C         5.66064   -6.700223   -3.54012 C.2        1 UNL1     0.1740
     15 C         5.286515   -6.595388   -4.989461 C.3        1 UNL1     0.0520
     16 C         5.298599   -5.125242   -5.385042 C.3        1 UNL1     0.1322
     17 O         4.352604   -4.373385   -4.593289 O.3        1 UNL1     -0.4828
     18 C         6.701007   -4.515139   -5.446271 C.ar        1 UNL1     -0.0067
     19 C         6.870738   -3.221561   -5.981116 C.ar        1 UNL1     -0.0516
     20 C         8.144966   -2.653006   -6.09537 C.ar        1 UNL1     -0.0198
     21 C         9.255597   -3.369108   -5.686075 C.ar        1 UNL1     0.1169
     22 C         9.117527   -4.631778   -5.124434 C.ar        1 UNL1     -0.0198
     23 C         7.841736   -5.193159   -4.993036 C.ar        1 UNL1     -0.0516
     24 O         10.483694   -2.798106   -5.847741 O.3        1 UNL1     -0.5068
     25 O         6.340106   -7.638383   -3.131873 O.2        1 UNL1     -0.2917
     26 O         5.84413   -6.734701   -0.64071 O.3        1 UNL1     -0.5058
     27 O         0.698906   -1.634784   -1.840909 O.3        1 UNL1     -0.3648
     28 O         -1.070768   -1.200624   1.273886 O.3        1 UNL1     -0.3841
     29 O         2.299224   -0.014259   0.9797 O.3        1 UNL1     -0.3863
     30 O         0.975123   -2.99855   2.665191 O.3        1 UNL1     -0.3829
     31 H         -0.829536   -2.398567   -0.812079 H        1 UNL1     0.0937
     32 H         0.0   0.0   0.0 H        1 UNL1     0.0671
     33 H         0.948218   -0.504519   2.400323 H        1 UNL1     0.0649
     34 H         2.832736   -2.212668   2.286246 H        1 UNL1     0.0683
     35 H         2.313678   -4.166886   0.898493 H        1 UNL1     0.1085
     36 H         4.58371   -4.903208   0.610004 H        1 UNL1     0.0691
     37 H         3.250916   -2.797019   -2.91389 H        1 UNL1     0.0691
     38 H         4.286812   -7.027417   -5.105528 H        1 UNL1     0.0385
     39 H         5.987438   -7.19019   -5.585025 H        1 UNL1     0.0385
     40 H         4.909474   -5.062695   -6.410318 H        1 UNL1     0.0789
     41 H         6.015703   -2.642682   -6.317962 H        1 UNL1     0.0623
     42 H         8.263907   -1.659446   -6.520461 H        1 UNL1     0.0654
     43 H         9.979186   -5.195199   -4.786779 H        1 UNL1     0.0654
     44 H         7.769982   -6.177294   -4.540076 H        1 UNL1     0.0623
     45 H         10.411145   -2.099174   -6.517776 H        1 UNL1     0.2921
     46 H         5.632721   -7.579812   -1.067917 H        1 UNL1     0.2922
     47 H         1.664142   -1.697089   -1.858115 H        1 UNL1     0.2126
     48 H         -0.948252   -2.057714   1.725681 H        1 UNL1     0.2101
     49 H         3.001291   -0.500498   0.518758 H        1 UNL1     0.2100
     50 H         0.087209   -2.595706   2.570126 H        1 UNL1     0.2102
@<TRIPOS>BOND
     1     1     2    1
     2     1     6    1
     3     2     3    1
     4     3     4    1
     5     3    29    1
     6     3    33    1
     7     4     5    1
     8     5     6    1
     9     5     7    1
    10     5    35    1
    11     7     8    1
    12     8     9   ar
    13     8    13   ar
    14     9    10   ar
    15     9    36    1
    16    10    11   ar
    17    10    26    1
    18    11    12   ar
    19    11    14    1
    20    12    13   ar
    21    12    17    1
    22    13    37    1
    23    14    15    1
    24    14    25    2
    25    15    16    1
    26    15    38    1
    27    15    39    1
    28    16    17    1
    29    16    18    1
    30    16    40    1
    31    18    19   ar
    32    18    23   ar
    33    19    20   ar
    34    19    41    1
    35    20    21   ar
    36    20    42    1
    37    21    22   ar
    38    21    24    1
    39    22    23   ar
    40    22    43    1
    41    23    44    1
    42    24    45    1
    43    26    46    1
    44    27    47    1
    45    28    48    1
    46    29    49    1
    47    30    50    1
    48     1    31    1
    49     1    27    1
    50     2    32    1
    51     2    28    1
    52     4    34    1
    53     4    30    1
