@<TRIPOS>MOLECULE
*****
 50 53 0 0 0
SMALL
GASTEIGER

@<TRIPOS>ATOM
     1 C         -0.335804   -1.331795   1.698341 C.3        1 UNL1     0.1889
     2 C         -0.463996   -0.975224   0.192896 C.3        1 UNL1     0.1342
     3 C         -1.904172   -0.959521   -0.341996 C.3        1 UNL1     0.1174
     4 C         -2.792683   -2.019109   0.314463 C.3        1 UNL1     0.1456
     5 C         -2.642937   -2.048177   1.846486 C.3        1 UNL1     0.2326
     6 O         -1.278755   -2.268891   2.197428 O.3        1 UNL1     -0.3076
     7 O         -3.217107   -0.901862   2.500408 O.3        1 UNL1     -0.4605
     8 C         -3.728864   -1.119614   3.766984 C.ar        1 UNL1     0.1310
     9 C         -3.509945   -0.302102   4.881009 C.ar        1 UNL1     0.0226
     10 C         -4.087886   -0.598706   6.121135 C.ar        1 UNL1     0.1343
     11 C         -4.918904   -1.708034   6.271603 C.ar        1 UNL1     0.1007
     12 C         -5.111906   -2.554623   5.176696 C.ar        1 UNL1     0.1389
     13 C         -4.528543   -2.257631   3.930536 C.ar        1 UNL1     0.0229
     14 C         -5.622383   -2.021534   7.536905 C.2        1 UNL1     0.1740
     15 C         -6.644907   -3.11681   7.457126 C.3        1 UNL1     0.0520
     16 C         -6.095083   -4.225572   6.570393 C.3        1 UNL1     0.1322
     17 O         -5.822112   -3.73096   5.240763 O.3        1 UNL1     -0.4828
     18 C         -4.942817   -5.007921   7.205166 C.ar        1 UNL1     -0.0067
     19 C         -3.76767   -5.236479   6.46018 C.ar        1 UNL1     -0.0516
     20 C         -2.714026   -5.988489   6.993358 C.ar        1 UNL1     -0.0198
     21 C         -2.826031   -6.522332   8.264693 C.ar        1 UNL1     0.1169
     22 C         -3.956969   -6.286455   9.035523 C.ar        1 UNL1     -0.0198
     23 C         -5.003133   -5.518983   8.509609 C.ar        1 UNL1     -0.0516
     24 O         -1.795235   -7.281036   8.736105 O.3        1 UNL1     -0.5068
     25 O         -5.457393   -1.389203   8.576819 O.2        1 UNL1     -0.2917
     26 O         -3.83393   0.238328   7.168258 O.3        1 UNL1     -0.5058
     27 O         -0.229964   -0.195653   2.541411 O.3        1 UNL1     -0.3648
     28 O         0.266123   -1.952885   -0.571179 O.3        1 UNL1     -0.3841
     29 O         -2.459926   0.354673   -0.263472 O.3        1 UNL1     -0.3863
     30 O         -2.44627   -3.319169   -0.210448 O.3        1 UNL1     -0.3829
     31 H         0.624024   -1.846234   1.817344 H        1 UNL1     0.0937
     32 H         0.0   0.0   0.0 H        1 UNL1     0.0671
     33 H         -1.866203   -1.196649   -1.4144 H        1 UNL1     0.0649
     34 H         -3.842256   -1.838758   0.05703 H        1 UNL1     0.0683
     35 H         -3.199231   -2.943992   2.149691 H        1 UNL1     0.1085
     36 H         -2.919416   0.605134   4.815297 H        1 UNL1     0.0691
     37 H         -4.69333   -2.933304   3.093993 H        1 UNL1     0.0691
     38 H         -7.558047   -2.687048   7.031679 H        1 UNL1     0.0385
     39 H         -6.872216   -3.47002   8.468735 H        1 UNL1     0.0385
     40 H         -6.901489   -4.958165   6.43062 H        1 UNL1     0.0789
     41 H         -3.659031   -4.83593   5.456482 H        1 UNL1     0.0623
     42 H         -1.817891   -6.167752   6.404446 H        1 UNL1     0.0654
     43 H         -4.048818   -6.687146   10.037981 H        1 UNL1     0.0654
     44 H         -5.867352   -5.345859   9.143642 H        1 UNL1     0.0623
     45 H         -1.686833   -8.048478   8.151299 H        1 UNL1     0.2921
     46 H         -4.671977   0.56669   7.530567 H        1 UNL1     0.2922
     47 H         0.512403   0.359136   2.263994 H        1 UNL1     0.2126
     48 H         1.201566   -1.877263   -0.301068 H        1 UNL1     0.2101
     49 H         -2.021532   0.937185   -0.904006 H        1 UNL1     0.2100
     50 H         -2.683631   -3.333637   -1.160797 H        1 UNL1     0.2102
@<TRIPOS>BOND
     1     1     2    1
     2     1     6    1
     3     2     3    1
     4     3     4    1
     5     3    29    1
     6     3    33    1
     7     4     5    1
     8     5     6    1
     9     5     7    1
    10     5    35    1
    11     7     8    1
    12     8     9   ar
    13     8    13   ar
    14     9    10   ar
    15     9    36    1
    16    10    11   ar
    17    10    26    1
    18    11    12   ar
    19    11    14    1
    20    12    13   ar
    21    12    17    1
    22    13    37    1
    23    14    15    1
    24    14    25    2
    25    15    16    1
    26    15    38    1
    27    15    39    1
    28    16    17    1
    29    16    18    1
    30    16    40    1
    31    18    19   ar
    32    18    23   ar
    33    19    20   ar
    34    19    41    1
    35    20    21   ar
    36    20    42    1
    37    21    22   ar
    38    21    24    1
    39    22    23   ar
    40    22    43    1
    41    23    44    1
    42    24    45    1
    43    26    46    1
    44    27    47    1
    45    28    48    1
    46    29    49    1
    47    30    50    1
    48     1    31    1
    49     1    27    1
    50     2    32    1
    51     2    28    1
    52     4    34    1
    53     4    30    1
