@<TRIPOS>MOLECULE
*****
 50 53 0 0 0
SMALL
GASTEIGER

@<TRIPOS>ATOM
     1 C         -0.33685   -1.331119   1.698664 C.3        1 UNL1     0.1889
     2 C         -0.464871   -0.974755   0.193155 C.3        1 UNL1     0.1342
     3 C         -1.905088   -0.957845   -0.341591 C.3        1 UNL1     0.1174
     4 C         -2.794503   -2.016475   0.31519 C.3        1 UNL1     0.1456
     5 C         -2.644625   -2.04535   1.847204 C.3        1 UNL1     0.2326
     6 O         -1.280609   -2.267241   2.198052 O.3        1 UNL1     -0.3076
     7 O         -3.217673   -0.898367   2.500937 O.3        1 UNL1     -0.4605
     8 C         -3.729498   -1.115374   3.767614 C.ar        1 UNL1     0.1310
     9 C         -3.743727   -2.344178   4.436299 C.ar        1 UNL1     0.0226
     10 C         -4.270671   -2.459047   5.728211 C.ar        1 UNL1     0.1343
     11 C         -4.775012   -1.341941   6.392708 C.ar        1 UNL1     0.1007
     12 C         -4.803702   -0.117681   5.719546 C.ar        1 UNL1     0.1389
     13 C         -4.276218   -0.00298   4.419533 C.ar        1 UNL1     0.0229
     14 C         -5.26683   -1.389562   7.789132 C.2        1 UNL1     0.1740
     15 C         -5.562319   -0.060144   8.41912 C.3        1 UNL1     0.0520
     16 C         -6.23603   0.826079   7.380525 C.3        1 UNL1     0.1322
     17 O         -5.374937   1.021643   6.237134 O.3        1 UNL1     -0.4828
     18 C         -7.662677   0.393558   7.033642 C.ar        1 UNL1     -0.0067
     19 C         -8.042105   0.279646   5.680397 C.ar        1 UNL1     -0.0516
     20 C         -9.35189   -0.06752   5.3284 C.ar        1 UNL1     -0.0198
     21 C         -10.291313   -0.295599   6.317991 C.ar        1 UNL1     0.1169
     22 C         -9.939453   -0.223879   7.65959 C.ar        1 UNL1     -0.0198
     23 C         -8.625069   0.105216   8.011934 C.ar        1 UNL1     -0.0516
     24 O         -11.566401   -0.594474   5.936907 O.3        1 UNL1     -0.5068
     25 O         -5.359068   -2.428022   8.438423 O.2        1 UNL1     -0.2917
     26 O         -4.255674   -3.686111   6.324596 O.3        1 UNL1     -0.5058
     27 O         -0.229879   -0.194892   2.541477 O.3        1 UNL1     -0.3648
     28 O         0.26427   -1.953252   -0.570784 O.3        1 UNL1     -0.3841
     29 O         -2.459626   0.356875   -0.263293 O.3        1 UNL1     -0.3863
     30 O         -2.449339   -3.316966   -0.209476 O.3        1 UNL1     -0.3829
     31 H         0.622518   -1.846414   1.817678 H        1 UNL1     0.0937
     32 H         0.0   0.0   0.0 H        1 UNL1     0.0671
     33 H         -1.867448   -1.19524   -1.413947 H        1 UNL1     0.0649
     34 H         -3.843937   -1.835217   0.057827 H        1 UNL1     0.0683
     35 H         -3.201709   -2.940588   2.15066 H        1 UNL1     0.1085
     36 H         -3.315832   -3.238044   3.99581 H        1 UNL1     0.0691
     37 H         -4.311458   0.961084   3.916709 H        1 UNL1     0.0691
     38 H         -4.609969   0.369852   8.747232 H        1 UNL1     0.0385
     39 H         -6.190913   -0.213553   9.302927 H        1 UNL1     0.0385
     40 H         -6.335244   1.826192   7.823753 H        1 UNL1     0.0789
     41 H         -7.325633   0.462552   4.88487 H        1 UNL1     0.0623
     42 H         -9.635218   -0.140529   4.281305 H        1 UNL1     0.0654
     43 H         -10.66341   -0.41526   8.442643 H        1 UNL1     0.0654
     44 H         -8.382534   0.141946   9.069607 H        1 UNL1     0.0623
     45 H         -11.916266   0.152182   5.424251 H        1 UNL1     0.2921
     46 H         -3.781508   -3.629535   7.169213 H        1 UNL1     0.2922
     47 H         0.512968   0.359155   2.263863 H        1 UNL1     0.2126
     48 H         1.197986   -1.88622   -0.292551 H        1 UNL1     0.2101
     49 H         -2.018861   0.939534   -0.902064 H        1 UNL1     0.2100
     50 H         -2.681588   -3.329504   -1.161114 H        1 UNL1     0.2102
@<TRIPOS>BOND
     1     1     2    1
     2     1     6    1
     3     2     3    1
     4     3     4    1
     5     3    29    1
     6     3    33    1
     7     4     5    1
     8     5     6    1
     9     5     7    1
    10     5    35    1
    11     7     8    1
    12     8     9   ar
    13     8    13   ar
    14     9    10   ar
    15     9    36    1
    16    10    11   ar
    17    10    26    1
    18    11    12   ar
    19    11    14    1
    20    12    13   ar
    21    12    17    1
    22    13    37    1
    23    14    15    1
    24    14    25    2
    25    15    16    1
    26    15    38    1
    27    15    39    1
    28    16    17    1
    29    16    18    1
    30    16    40    1
    31    18    19   ar
    32    18    23   ar
    33    19    20   ar
    34    19    41    1
    35    20    21   ar
    36    20    42    1
    37    21    22   ar
    38    21    24    1
    39    22    23   ar
    40    22    43    1
    41    23    44    1
    42    24    45    1
    43    26    46    1
    44    27    47    1
    45    28    48    1
    46    29    49    1
    47    30    50    1
    48     1    31    1
    49     1    27    1
    50     2    32    1
    51     2    28    1
    52     4    34    1
    53     4    30    1
