@<TRIPOS>MOLECULE
*****
 50 53 0 0 0
SMALL
GASTEIGER

@<TRIPOS>ATOM
     1 C         -0.567836   -1.413703   1.565187 C.3        1 UNL1     0.1889
     2 C         -0.578175   -0.927918   0.09079 C.3        1 UNL1     0.1342
     3 C         -1.978343   -0.705879   -0.501404 C.3        1 UNL1     0.1174
     4 C         -3.011057   -1.705178   0.025873 C.3        1 UNL1     0.1456
     5 C         -2.944523   -1.871166   1.555051 C.3        1 UNL1     0.2326
     6 O         -1.632953   -2.273136   1.943731 O.3        1 UNL1     -0.3076
     7 O         -3.421483   -0.721561   2.277711 O.3        1 UNL1     -0.4605
     8 C         -4.018693   -0.978018   3.498817 C.ar        1 UNL1     0.1310
     9 C         -4.968477   -1.975879   3.742711 C.ar        1 UNL1     0.0226
     10 C         -5.503608   -2.16857   5.021933 C.ar        1 UNL1     0.1343
     11 C         -5.083848   -1.382809   6.094417 C.ar        1 UNL1     0.1007
     12 C         -4.166383   -0.356327   5.854879 C.ar        1 UNL1     0.1389
     13 C         -3.630433   -0.16106   4.568 C.ar        1 UNL1     0.0229
     14 C         -5.553516   -1.597875   7.482694 C.2        1 UNL1     0.1740
     15 C         -4.834315   -0.813205   8.540329 C.3        1 UNL1     0.0520
     16 C         -4.577436   0.589933   8.008185 C.3        1 UNL1     0.1322
     17 O         -3.765801   0.544812   6.813914 O.3        1 UNL1     -0.4828
     18 C         -5.842241   1.442874   7.883753 C.ar        1 UNL1     -0.0067
     19 C         -6.088504   2.145784   6.68647 C.ar        1 UNL1     -0.0516
     20 C         -7.21106   2.972198   6.55658 C.ar        1 UNL1     -0.0198
     21 C         -8.088965   3.109559   7.616883 C.ar        1 UNL1     0.1169
     22 C         -7.891372   2.404188   8.796819 C.ar        1 UNL1     -0.0198
     23 C         -6.778825   1.563345   8.920426 C.ar        1 UNL1     -0.0516
     24 O         -9.150661   3.952602   7.466953 O.3        1 UNL1     -0.5068
     25 O         -6.416967   -2.417344   7.785029 O.2        1 UNL1     -0.2917
     26 O         -6.42703   -3.158347   5.19286 O.3        1 UNL1     -0.5058
     27 O         -0.380718   -0.3667   2.5041 O.3        1 UNL1     -0.3648
     28 O         0.077871   -1.919682   -0.720823 O.3        1 UNL1     -0.3841
     29 O         -2.388857   0.652984   -0.336776 O.3        1 UNL1     -0.3863
     30 O         -2.783778   -2.991134   -0.590854 O.3        1 UNL1     -0.3829
     31 H         0.321897   -2.042182   1.68125 H        1 UNL1     0.0937
     32 H         0.0   0.0   0.0 H        1 UNL1     0.0671
     33 H         -1.911626   -0.860997   -1.587317 H        1 UNL1     0.0649
     34 H         -4.019634   -1.386461   -0.259768 H        1 UNL1     0.0683
     35 H         -3.611218   -2.718542   1.758401 H        1 UNL1     0.1085
     36 H         -5.294177   -2.655861   2.963183 H        1 UNL1     0.0691
     37 H         -2.918536   0.64574   4.407468 H        1 UNL1     0.0691
     38 H         -3.894211   -1.332109   8.755892 H        1 UNL1     0.0385
     39 H         -5.43802   -0.805339   9.454253 H        1 UNL1     0.0385
     40 H         -3.950082   1.106562   8.747131 H        1 UNL1     0.0789
     41 H         -5.409555   2.061909   5.84288 H        1 UNL1     0.0623
     42 H         -7.383603   3.518285   5.632443 H        1 UNL1     0.0654
     43 H         -8.58071   2.492738   9.628012 H        1 UNL1     0.0654
     44 H         -6.661271   1.019216   9.852601 H        1 UNL1     0.0623
     45 H         -8.81106   4.847839   7.3059 H        1 UNL1     0.2921
     46 H         -6.12229   -3.769615   5.881988 H        1 UNL1     0.2922
     47 H         0.430954   0.120522   2.304943 H        1 UNL1     0.2126
     48 H         1.000787   -1.972849   -0.405969 H        1 UNL1     0.2101
     49 H         -1.856415   1.229993   -0.907179 H        1 UNL1     0.2100
     50 H         -2.972034   -2.903847   -1.548274 H        1 UNL1     0.2102
@<TRIPOS>BOND
     1     1     2    1
     2     1     6    1
     3     2     3    1
     4     3     4    1
     5     3    29    1
     6     3    33    1
     7     4     5    1
     8     5     6    1
     9     5     7    1
    10     5    35    1
    11     7     8    1
    12     8     9   ar
    13     8    13   ar
    14     9    10   ar
    15     9    36    1
    16    10    11   ar
    17    10    26    1
    18    11    12   ar
    19    11    14    1
    20    12    13   ar
    21    12    17    1
    22    13    37    1
    23    14    15    1
    24    14    25    2
    25    15    16    1
    26    15    38    1
    27    15    39    1
    28    16    17    1
    29    16    18    1
    30    16    40    1
    31    18    19   ar
    32    18    23   ar
    33    19    20   ar
    34    19    41    1
    35    20    21   ar
    36    20    42    1
    37    21    22   ar
    38    21    24    1
    39    22    23   ar
    40    22    43    1
    41    23    44    1
    42    24    45    1
    43    26    46    1
    44    27    47    1
    45    28    48    1
    46    29    49    1
    47    30    50    1
    48     1    31    1
    49     1    27    1
    50     2    32    1
    51     2    28    1
    52     4    34    1
    53     4    30    1
