@<TRIPOS>MOLECULE
*****
 50 53 0 0 0
SMALL
GASTEIGER

@<TRIPOS>ATOM
     1 C         0.531722   0.613337   -2.02778 C.3        1 UNL1     0.1889
     2 C         -0.226902   0.822499   -0.689617 C.3        1 UNL1     0.1342
     3 C         -1.751306   0.95245   -0.830229 C.3        1 UNL1     0.1174
     4 C         -2.169665   1.670974   -2.115459 C.3        1 UNL1     0.1456
     5 C         -1.420613   1.147888   -3.354679 C.3        1 UNL1     0.2326
     6 O         -0.013605   1.272952   -3.160883 O.3        1 UNL1     -0.3076
     7 O         -1.821812   -0.176428   -3.750339 O.3        1 UNL1     -0.4605
     8 C         -2.173109   -1.035307   -2.724452 C.ar        1 UNL1     0.1310
     9 C         -1.314168   -1.946439   -2.100464 C.ar        1 UNL1     0.0226
     10 C         -1.761431   -2.763769   -1.055557 C.ar        1 UNL1     0.1343
     11 C         -3.0735   -2.672801   -0.592912 C.ar        1 UNL1     0.1007
     12 C         -3.951672   -1.795926   -1.235319 C.ar        1 UNL1     0.1389
     13 C         -3.502416   -0.976105   -2.287695 C.ar        1 UNL1     0.0229
     14 C         -3.575879   -3.451955   0.562375 C.2        1 UNL1     0.1740
     15 C         -4.937613   -3.067628   1.061897 C.3        1 UNL1     0.0520
     16 C         -5.828966   -2.783613   -0.139262 C.3        1 UNL1     0.1322
     17 O         -5.290543   -1.703555   -0.933393 O.3        1 UNL1     -0.4828
     18 C         -6.202126   -4.034146   -0.939039 C.ar        1 UNL1     -0.0067
     19 C         -5.49843   -4.334239   -2.123509 C.ar        1 UNL1     -0.0516
     20 C         -5.8454   -5.443713   -2.903664 C.ar        1 UNL1     -0.0198
     21 C         -6.8965   -6.254809   -2.514896 C.ar        1 UNL1     0.1169
     22 C         -7.586812   -6.004361   -1.33609 C.ar        1 UNL1     -0.0198
     23 C         -7.228111   -4.905565   -0.546129 C.ar        1 UNL1     -0.0516
     24 O         -7.22996   -7.304344   -3.319681 O.3        1 UNL1     -0.5068
     25 O         -2.910609   -4.305878   1.142648 O.2        1 UNL1     -0.2917
     26 O         -0.873808   -3.63211   -0.490143 O.3        1 UNL1     -0.5058
     27 O         0.825415   -0.746785   -2.304547 O.3        1 UNL1     -0.3648
     28 O         0.251843   2.035   -0.078593 O.3        1 UNL1     -0.3841
     29 O         -2.384986   -0.31904   -0.675647 O.3        1 UNL1     -0.3863
     30 O         -1.905626   3.083928   -1.975698 O.3        1 UNL1     -0.3829
     31 H         1.51439   1.082194   -1.906883 H        1 UNL1     0.0937
     32 H         0.0   0.0   0.0 H        1 UNL1     0.0671
     33 H         -2.11453   1.563299   0.008014 H        1 UNL1     0.0649
     34 H         -3.248464   1.560381   -2.271543 H        1 UNL1     0.0683
     35 H         -1.697218   1.853288   -4.148266 H        1 UNL1     0.1085
     36 H         -0.268358   -2.02515   -2.376521 H        1 UNL1     0.0691
     37 H         -4.206197   -0.302591   -2.772013 H        1 UNL1     0.0691
     38 H         -4.821516   -2.175966   1.687187 H        1 UNL1     0.0385
     39 H         -5.331482   -3.875518   1.687964 H        1 UNL1     0.0385
     40 H         -6.779309   -2.392178   0.248225 H        1 UNL1     0.0789
     41 H         -4.67541   -3.707837   -2.455034 H        1 UNL1     0.0623
     42 H         -5.30283   -5.657761   -3.821167 H        1 UNL1     0.0654
     43 H         -8.401801   -6.641751   -1.014474 H        1 UNL1     0.0654
     44 H         -7.782084   -4.745884   0.373904 H        1 UNL1     0.0623
     45 H         -6.614123   -7.32317   -4.070087 H        1 UNL1     0.2921
     46 H         -0.194358   -3.869583   -1.14081 H        1 UNL1     0.2922
     47 H         1.781498   -0.89322   -2.286641 H        1 UNL1     0.2126
     48 H         -0.021411   2.768978   -0.661979 H        1 UNL1     0.2101
     49 H         -2.582756   -0.477488   0.261143 H        1 UNL1     0.2100
     50 H         -2.198359   3.52817   -2.798297 H        1 UNL1     0.2102
@<TRIPOS>BOND
     1     1     2    1
     2     1     6    1
     3     2     3    1
     4     3     4    1
     5     3    29    1
     6     3    33    1
     7     4     5    1
     8     5     6    1
     9     5     7    1
    10     5    35    1
    11     7     8    1
    12     8     9   ar
    13     8    13   ar
    14     9    10   ar
    15     9    36    1
    16    10    11   ar
    17    10    26    1
    18    11    12   ar
    19    11    14    1
    20    12    13   ar
    21    12    17    1
    22    13    37    1
    23    14    15    1
    24    14    25    2
    25    15    16    1
    26    15    38    1
    27    15    39    1
    28    16    17    1
    29    16    18    1
    30    16    40    1
    31    18    19   ar
    32    18    23   ar
    33    19    20   ar
    34    19    41    1
    35    20    21   ar
    36    20    42    1
    37    21    22   ar
    38    21    24    1
    39    22    23   ar
    40    22    43    1
    41    23    44    1
    42    24    45    1
    43    26    46    1
    44    27    47    1
    45    28    48    1
    46    29    49    1
    47    30    50    1
    48     1    31    1
    49     1    27    1
    50     2    32    1
    51     2    28    1
    52     4    34    1
    53     4    30    1
