@<TRIPOS>MOLECULE
*****
 50 53 0 0 0
SMALL
GASTEIGER

@<TRIPOS>ATOM
     1 C         -2.038741   -0.728603   0.288928 C.3        1 UNL1     0.1889
     2 C         -0.705373   -0.144063   0.827802 C.3        1 UNL1     0.1342
     3 C         -0.030454   -0.987645   1.920193 C.3        1 UNL1     0.1174
     4 C         -1.037231   -1.681954   2.840765 C.3        1 UNL1     0.1456
     5 C         -2.171825   -2.37149   2.061279 C.3        1 UNL1     0.2326
     6 O         -2.840269   -1.421828   1.234119 O.3        1 UNL1     -0.3076
     7 O         -1.744678   -3.544369   1.344885 O.3        1 UNL1     -0.4605
     8 C         -2.492397   -3.879872   0.230487 C.ar        1 UNL1     0.1310
     9 C         -2.097406   -4.772634   -0.77164 C.ar        1 UNL1     0.0226
     10 C         -2.935292   -5.060854   -1.855512 C.ar        1 UNL1     0.1343
     11 C         -4.199532   -4.48088   -1.951262 C.ar        1 UNL1     0.1007
     12 C         -4.588548   -3.556448   -0.978186 C.ar        1 UNL1     0.1389
     13 C         -3.744806   -3.264802   0.110148 C.ar        1 UNL1     0.0229
     14 C         -5.158555   -4.813585   -3.030029 C.2        1 UNL1     0.1740
     15 C         -6.546435   -4.270664   -2.855174 C.3        1 UNL1     0.0520
     16 C         -6.444084   -2.854118   -2.30665 C.3        1 UNL1     0.1322
     17 O         -5.765169   -2.845821   -1.031474 O.3        1 UNL1     -0.4828
     18 C         -5.906416   -1.839021   -3.318191 C.ar        1 UNL1     -0.0067
     19 C         -6.751275   -1.371019   -4.345518 C.ar        1 UNL1     -0.0516
     20 C         -6.277349   -0.478868   -5.314757 C.ar        1 UNL1     -0.0198
     21 C         -4.961511   -0.053932   -5.272016 C.ar        1 UNL1     0.1169
     22 C         -4.114587   -0.470982   -4.253376 C.ar        1 UNL1     -0.0198
     23 C         -4.593413   -1.348705   -3.273384 C.ar        1 UNL1     -0.0516
     24 O         -4.525091   0.785342   -6.254644 O.3        1 UNL1     -0.5068
     25 O         -4.885068   -5.549458   -3.974582 O.2        1 UNL1     -0.2917
     26 O         -2.4901   -5.939508   -2.799628 O.3        1 UNL1     -0.5058
     27 O         -1.88722   -1.46849   -0.912069 O.3        1 UNL1     -0.3648
     28 O         -0.971138   1.153676   1.391671 O.3        1 UNL1     -0.3841
     29 O         0.914366   -1.894914   1.348956 O.3        1 UNL1     -0.3863
     30 O         -1.614789   -0.704884   3.733765 O.3        1 UNL1     -0.3829
     31 H         -2.661749   0.125749   0.002531 H        1 UNL1     0.0937
     32 H         0.0   0.0   0.0 H        1 UNL1     0.0671
     33 H         0.561028   -0.308972   2.550488 H        1 UNL1     0.0649
     34 H         -0.524713   -2.422764   3.464405 H        1 UNL1     0.0683
     35 H         -2.883251   -2.672389   2.840517 H        1 UNL1     0.1085
     36 H         -1.150121   -5.298623   -0.725735 H        1 UNL1     0.0691
     37 H         -4.070556   -2.540655   0.853782 H        1 UNL1     0.0691
     38 H         -7.073489   -4.928026   -2.155449 H        1 UNL1     0.0385
     39 H         -7.069284   -4.305437   -3.817047 H        1 UNL1     0.0385
     40 H         -7.465296   -2.521677   -2.076149 H        1 UNL1     0.0789
     41 H         -7.785611   -1.696755   -4.406293 H        1 UNL1     0.0623
     42 H         -6.935311   -0.134508   -6.108806 H        1 UNL1     0.0654
     43 H         -3.086595   -0.132634   -4.201775 H        1 UNL1     0.0654
     44 H         -3.907163   -1.64568   -2.486166 H        1 UNL1     0.0623
     45 H         -5.125113   0.706797   -7.013934 H        1 UNL1     0.2921
     46 H         -3.195415   -6.106028   -3.444775 H        1 UNL1     0.2922
     47 H         -1.691358   -2.394563   -0.712353 H        1 UNL1     0.2126
     48 H         -0.460887   1.207401   2.222629 H        1 UNL1     0.2101
     49 H         0.448533   -2.636032   0.929985 H        1 UNL1     0.2100
     50 H         -0.961338   -0.51774   4.439237 H        1 UNL1     0.2102
@<TRIPOS>BOND
     1     1     2    1
     2     1     6    1
     3     2     3    1
     4     3     4    1
     5     3    29    1
     6     3    33    1
     7     4     5    1
     8     5     6    1
     9     5     7    1
    10     5    35    1
    11     7     8    1
    12     8     9   ar
    13     8    13   ar
    14     9    10   ar
    15     9    36    1
    16    10    11   ar
    17    10    26    1
    18    11    12   ar
    19    11    14    1
    20    12    13   ar
    21    12    17    1
    22    13    37    1
    23    14    15    1
    24    14    25    2
    25    15    16    1
    26    15    38    1
    27    15    39    1
    28    16    17    1
    29    16    18    1
    30    16    40    1
    31    18    19   ar
    32    18    23   ar
    33    19    20   ar
    34    19    41    1
    35    20    21   ar
    36    20    42    1
    37    21    22   ar
    38    21    24    1
    39    22    23   ar
    40    22    43    1
    41    23    44    1
    42    24    45    1
    43    26    46    1
    44    27    47    1
    45    28    48    1
    46    29    49    1
    47    30    50    1
    48     1    31    1
    49     1    27    1
    50     2    32    1
    51     2    28    1
    52     4    34    1
    53     4    30    1
