@<TRIPOS>MOLECULE
*****
 50 53 0 0 0
SMALL
GASTEIGER

@<TRIPOS>ATOM
     1 C         -0.329952   -1.327438   1.702893 C.3        1 UNL1     0.1889
     2 C         -0.461548   -0.975642   0.196619 C.3        1 UNL1     0.1342
     3 C         -1.902688   -0.964643   -0.335789 C.3        1 UNL1     0.1174
     4 C         -2.787756   -2.024179   0.325387 C.3        1 UNL1     0.1456
     5 C         -2.635269   -2.048349   1.857225 C.3        1 UNL1     0.2326
     6 O         -1.27   -2.265071   2.206428 O.3        1 UNL1     -0.3076
     7 O         -3.21077   -0.901327   2.508731 O.3        1 UNL1     -0.4605
     8 C         -3.719414   -1.116292   3.777037 C.ar        1 UNL1     0.1310
     9 C         -4.534505   -2.189748   4.152028 C.ar        1 UNL1     0.0226
     10 C         -4.986431   -2.329554   5.469647 C.ar        1 UNL1     0.1343
     11 C         -4.614293   -1.411311   6.450556 C.ar        1 UNL1     0.1007
     12 C         -3.834418   -0.312785   6.079317 C.ar        1 UNL1     0.1389
     13 C         -3.382317   -0.171002   4.753824 C.ar        1 UNL1     0.0229
     14 C         -4.993838   -1.556416   7.875002 C.2        1 UNL1     0.1740
     15 C         -4.32513   -0.606828   8.825087 C.3        1 UNL1     0.0520
     16 C         -4.257573   0.764717   8.167624 C.3        1 UNL1     0.1322
     17 O         -3.49979   0.707645   6.938976 O.3        1 UNL1     -0.4828
     18 C         -5.617556   1.455766   8.04263 C.ar        1 UNL1     -0.0067
     19 C         -5.998031   2.017292   6.80645 C.ar        1 UNL1     -0.0516
     20 C         -7.214035   2.697575   6.670388 C.ar        1 UNL1     -0.0198
     21 C         -8.053099   2.829235   7.762388 C.ar        1 UNL1     0.1169
     22 C         -7.721409   2.258266   8.984196 C.ar        1 UNL1     -0.0198
     23 C         -6.513937   1.56202   9.115759 C.ar        1 UNL1     -0.0516
     24 O         -9.211568   3.531028   7.601647 O.3        1 UNL1     -0.5068
     25 O         -5.741514   -2.438495   8.289008 O.2        1 UNL1     -0.2917
     26 O         -5.779535   -3.398383   5.769941 O.3        1 UNL1     -0.5058
     27 O         -0.225095   -0.188557   2.542383 O.3        1 UNL1     -0.3648
     28 O         0.269345   -1.954004   -0.565817 O.3        1 UNL1     -0.3841
     29 O         -2.461144   0.348577   -0.260209 O.3        1 UNL1     -0.3863
     30 O         -2.439452   -3.325051   -0.196251 O.3        1 UNL1     -0.3829
     31 H         0.631193   -1.839448   1.821744 H        1 UNL1     0.0937
     32 H         0.0   0.0   0.0 H        1 UNL1     0.0671
     33 H         -1.866082   -1.20489   -1.407545 H        1 UNL1     0.0649
     34 H         -3.838165   -1.846863   0.069261 H        1 UNL1     0.0683
     35 H         -3.189092   -2.944452   2.164077 H        1 UNL1     0.1085
     36 H         -4.812722   -2.967237   3.449016 H        1 UNL1     0.0691
     37 H         -2.777266   0.693797   4.490141 H        1 UNL1     0.0691
     38 H         -3.322277   -0.995875   9.031131 H        1 UNL1     0.0385
     39 H         -4.884648   -0.587586   9.766547 H        1 UNL1     0.0385
     40 H         -3.662784   1.410951   8.827267 H        1 UNL1     0.0789
     41 H         -5.352795   1.935499   5.936606 H        1 UNL1     0.0623
     42 H         -7.490722   3.136466   5.714966 H        1 UNL1     0.0654
     43 H         -8.37806   2.342417   9.84189 H        1 UNL1     0.0654
     44 H         -6.291671   1.119607   10.082048 H        1 UNL1     0.0623
     45 H         -8.986593   4.438396   7.339376 H        1 UNL1     0.2921
     46 H         -5.374506   -3.910204   6.487857 H        1 UNL1     0.2922
     47 H         0.517386   0.365503   2.263816 H        1 UNL1     0.2126
     48 H         1.202249   -1.887719   -0.284697 H        1 UNL1     0.2101
     49 H         -2.023108   0.930861   -0.901197 H        1 UNL1     0.2100
     50 H         -2.673228   -3.34094   -1.147465 H        1 UNL1     0.2102
@<TRIPOS>BOND
     1     1     2    1
     2     1     6    1
     3     2     3    1
     4     3     4    1
     5     3    29    1
     6     3    33    1
     7     4     5    1
     8     5     6    1
     9     5     7    1
    10     5    35    1
    11     7     8    1
    12     8     9   ar
    13     8    13   ar
    14     9    10   ar
    15     9    36    1
    16    10    11   ar
    17    10    26    1
    18    11    12   ar
    19    11    14    1
    20    12    13   ar
    21    12    17    1
    22    13    37    1
    23    14    15    1
    24    14    25    2
    25    15    16    1
    26    15    38    1
    27    15    39    1
    28    16    17    1
    29    16    18    1
    30    16    40    1
    31    18    19   ar
    32    18    23   ar
    33    19    20   ar
    34    19    41    1
    35    20    21   ar
    36    20    42    1
    37    21    22   ar
    38    21    24    1
    39    22    23   ar
    40    22    43    1
    41    23    44    1
    42    24    45    1
    43    26    46    1
    44    27    47    1
    45    28    48    1
    46    29    49    1
    47    30    50    1
    48     1    31    1
    49     1    27    1
    50     2    32    1
    51     2    28    1
    52     4    34    1
    53     4    30    1
