@<TRIPOS>MOLECULE
*****
 50 53 0 0 0
SMALL
GASTEIGER

@<TRIPOS>ATOM
     1 C         -0.400916   -1.372358   1.651273 C.3        1 UNL1     0.1889
     2 C         -0.494642   -0.966768   0.155729 C.3        1 UNL1     0.1342
     3 C         -1.924988   -0.893143   -0.400288 C.3        1 UNL1     0.1174
     4 C         -2.853785   -1.945948   0.209675 C.3        1 UNL1     0.1456
     5 C         -2.729613   -2.025754   1.742181 C.3        1 UNL1     0.2326
     6 O         -1.378101   -2.296434   2.106894 O.3        1 UNL1     -0.3076
     7 O         -3.281338   -0.883627   2.422229 O.3        1 UNL1     -0.4605
     8 C         -3.197708   0.321718   1.748673 C.ar        1 UNL1     0.1310
     9 C         -2.669009   0.497928   0.465424 C.ar        1 UNL1     0.0226
     10 C         -2.644208   1.75992   -0.140105 C.ar        1 UNL1     0.1343
     11 C         -3.169755   2.873312   0.514112 C.ar        1 UNL1     0.1007
     12 C         -3.663042   2.71729   1.81223 C.ar        1 UNL1     0.1389
     13 C         -3.685454   1.44874   2.421908 C.ar        1 UNL1     0.0229
     14 C         -3.245533   4.213719   -0.111762 C.2        1 UNL1     0.1740
     15 C         -4.039254   5.238991   0.643469 C.3        1 UNL1     0.0520
     16 C         -3.739359   5.082794   2.12793 C.3        1 UNL1     0.1322
     17 O         -4.104741   3.76327   2.588822 O.3        1 UNL1     -0.4828
     18 C         -2.327301   5.523604   2.520997 C.ar        1 UNL1     -0.0067
     19 C         -1.987662   6.890949   2.464183 C.ar        1 UNL1     -0.0516
     20 C         -0.691757   7.32256   2.771272 C.ar        1 UNL1     -0.0198
     21 C         0.273289   6.397995   3.128612 C.ar        1 UNL1     0.1169
     22 C         -0.039522   5.04836   3.225953 C.ar        1 UNL1     -0.0198
     23 C         -1.340185   4.618563   2.936806 C.ar        1 UNL1     -0.0516
     24 O         1.534139   6.851296   3.383908 O.3        1 UNL1     -0.5068
     25 O         -2.768273   4.473565   -1.21321 O.2        1 UNL1     -0.2917
     26 O         -2.113883   1.864346   -1.392876 O.3        1 UNL1     -0.5058
     27 O         -0.276332   -0.265829   2.530397 O.3        1 UNL1     -0.3648
     28 O         0.219528   -1.94157   -0.626848 O.3        1 UNL1     -0.3841
     29 O         -2.44426   0.433618   -0.289855 O.3        1 UNL1     -0.3863
     30 O         -2.536152   -3.238996   -0.349634 O.3        1 UNL1     -0.3829
     31 H         0.541822   -1.917761   1.768996 H        1 UNL1     0.0937
     32 H         0.0   0.0   0.0 H        1 UNL1     0.0671
     33 H         -1.87653   -1.098666   -1.478774 H        1 UNL1     0.0649
     34 H         -3.893511   -1.727546   -0.058037 H        1 UNL1     0.0683
     35 H         -3.316016   -2.913851   2.00919 H        1 UNL1     0.1085
     36 H         -2.296352   -0.33728   -0.117392 H        1 UNL1     0.0691
     37 H         -4.073728   1.354078   3.433726 H        1 UNL1     0.0691
     38 H         -5.098828   5.058129   0.433426 H        1 UNL1     0.0385
     39 H         -3.782373   6.236859   0.271917 H        1 UNL1     0.0385
     40 H         -4.415777   5.759235   2.667751 H        1 UNL1     0.0789
     41 H         -2.724753   7.635399   2.177581 H        1 UNL1     0.0623
     42 H         -0.439069   8.378342   2.712242 H        1 UNL1     0.0654
     43 H         0.704615   4.317574   3.519418 H        1 UNL1     0.0654
     44 H         -1.552137   3.558095   3.033397 H        1 UNL1     0.0623
     45 H         1.803307   7.435186   2.656352 H        1 UNL1     0.2921
     46 H         -2.356843   2.721748   -1.7766 H        1 UNL1     0.2922
     47 H         0.452177   0.305054   2.248923 H        1 UNL1     0.2126
     48 H         0.191485   -1.63196   -1.552638 H        1 UNL1     0.2101
     49 H         -3.003857   0.504319   0.499858 H        1 UNL1     0.2100
     50 H         -2.792158   -3.229629   -1.295196 H        1 UNL1     0.2102
@<TRIPOS>BOND
     1     1     2    1
     2     1     6    1
     3     2     3    1
     4     3     4    1
     5     3    29    1
     6     3    33    1
     7     4     5    1
     8     5     6    1
     9     5     7    1
    10     5    35    1
    11     7     8    1
    12     8     9   ar
    13     8    13   ar
    14     9    10   ar
    15     9    36    1
    16    10    11   ar
    17    10    26    1
    18    11    12   ar
    19    11    14    1
    20    12    13   ar
    21    12    17    1
    22    13    37    1
    23    14    15    1
    24    14    25    2
    25    15    16    1
    26    15    38    1
    27    15    39    1
    28    16    17    1
    29    16    18    1
    30    16    40    1
    31    18    19   ar
    32    18    23   ar
    33    19    20   ar
    34    19    41    1
    35    20    21   ar
    36    20    42    1
    37    21    22   ar
    38    21    24    1
    39    22    23   ar
    40    22    43    1
    41    23    44    1
    42    24    45    1
    43    26    46    1
    44    27    47    1
    45    28    48    1
    46    29    49    1
    47    30    50    1
    48     1    31    1
    49     1    27    1
    50     2    32    1
    51     2    28    1
    52     4    34    1
    53     4    30    1
