@<TRIPOS>MOLECULE
*****
 50 53 0 0 0
SMALL
GASTEIGER

@<TRIPOS>ATOM
     1 C         0.823841   0.720737   1.89014 C.3        1 UNL1     0.1889
     2 C         -0.361904   0.480688   0.917347 C.3        1 UNL1     0.1342
     3 C         -1.15032   1.745106   0.543031 C.3        1 UNL1     0.1174
     4 C         -1.24214   2.749805   1.694233 C.3        1 UNL1     0.1456
     5 C         0.114024   2.981022   2.385407 C.3        1 UNL1     0.2326
     6 O         0.635721   1.741552   2.859131 O.3        1 UNL1     -0.3076
     7 O         1.050584   3.717625   1.578196 O.3        1 UNL1     -0.4605
     8 C         2.38151   3.370084   1.724412 C.ar        1 UNL1     0.1310
     9 C         3.471979   4.1854   1.402794 C.ar        1 UNL1     0.0226
     10 C         4.786657   3.748199   1.603735 C.ar        1 UNL1     0.1343
     11 C         5.042665   2.492987   2.153956 C.ar        1 UNL1     0.1007
     12 C         3.962756   1.6538   2.440915 C.ar        1 UNL1     0.1389
     13 C         2.64101   2.09261   2.236312 C.ar        1 UNL1     0.0229
     14 C         6.409219   2.013764   2.465452 C.2        1 UNL1     0.1740
     15 C         6.486371   0.740483   3.255611 C.3        1 UNL1     0.0520
     16 C         5.42026   -0.214253   2.736145 C.3        1 UNL1     0.1322
     17 O         4.10249   0.359051   2.884047 O.3        1 UNL1     -0.4828
     18 C         5.717472   -0.769752   1.341223 C.ar        1 UNL1     -0.0067
     19 C         5.147212   -0.147159   0.211888 C.ar        1 UNL1     -0.0516
     20 C         5.360179   -0.657919   -1.074087 C.ar        1 UNL1     -0.0198
     21 C         6.133666   -1.792398   -1.242922 C.ar        1 UNL1     0.1169
     22 C         6.736038   -2.408296   -0.153584 C.ar        1 UNL1     -0.0198
     23 C         6.538348   -1.886984   1.130631 C.ar        1 UNL1     -0.0516
     24 O         6.287837   -2.282795   -2.506307 O.3        1 UNL1     -0.5068
     25 O         7.426728   2.638893   2.178439 O.2        1 UNL1     -0.2917
     26 O         5.805575   4.591315   1.268252 O.3        1 UNL1     -0.5058
     27 O         2.076231   0.844676   1.2352 O.3        1 UNL1     -0.3648
     28 O         -1.285465   -0.431304   1.540254 O.3        1 UNL1     -0.3841
     29 O         -0.637819   2.325161   -0.658223 O.3        1 UNL1     -0.3863
     30 O         -2.185215   2.263069   2.673717 O.3        1 UNL1     -0.3829
     31 H         0.923383   -0.188859   2.492473 H        1 UNL1     0.0937
     32 H         0.0   0.0   -0.0 H        1 UNL1     0.0671
     33 H         -2.178878   1.440535   0.30423 H        1 UNL1     0.0649
     34 H         -1.62799   3.706697   1.325616 H        1 UNL1     0.0683
     35 H         -0.138382   3.579628   3.269625 H        1 UNL1     0.1085
     36 H         3.338619   5.192841   1.024114 H        1 UNL1     0.0691
     37 H         1.817806   1.419747   2.466711 H        1 UNL1     0.0691
     38 H         6.31251   0.992267   4.307231 H        1 UNL1     0.0385
     39 H         7.495095   0.323061   3.166091 H        1 UNL1     0.0385
     40 H         5.415907   -1.087857   3.401965 H        1 UNL1     0.0789
     41 H         4.528668   0.739198   0.318775 H        1 UNL1     0.0623
     42 H         4.905239   -0.175779   -1.935819 H        1 UNL1     0.0654
     43 H         7.355966   -3.288411   -0.276047 H        1 UNL1     0.0654
     44 H         7.032758   -2.387356   1.957693 H        1 UNL1     0.0623
     45 H         6.820849   -1.652194   -3.017146 H        1 UNL1     0.2921
     46 H         6.193279   4.967088   2.07441 H        1 UNL1     0.2922
     47 H         2.233636   1.765875   0.985247 H        1 UNL1     0.2126
     48 H         -2.181213   -0.080206   1.372631 H        1 UNL1     0.2101
     49 H         -0.379   1.625068   -1.278446 H        1 UNL1     0.2100
     50 H         -2.707064   1.545128   2.259052 H        1 UNL1     0.2102
@<TRIPOS>BOND
     1     1     2    1
     2     1     6    1
     3     2     3    1
     4     3     4    1
     5     3    29    1
     6     3    33    1
     7     4     5    1
     8     5     6    1
     9     5     7    1
    10     5    35    1
    11     7     8    1
    12     8     9   ar
    13     8    13   ar
    14     9    10   ar
    15     9    36    1
    16    10    11   ar
    17    10    26    1
    18    11    12   ar
    19    11    14    1
    20    12    13   ar
    21    12    17    1
    22    13    37    1
    23    14    15    1
    24    14    25    2
    25    15    16    1
    26    15    38    1
    27    15    39    1
    28    16    17    1
    29    16    18    1
    30    16    40    1
    31    18    19   ar
    32    18    23   ar
    33    19    20   ar
    34    19    41    1
    35    20    21   ar
    36    20    42    1
    37    21    22   ar
    38    21    24    1
    39    22    23   ar
    40    22    43    1
    41    23    44    1
    42    24    45    1
    43    26    46    1
    44    27    47    1
    45    28    48    1
    46    29    49    1
    47    30    50    1
    48     1    31    1
    49     1    27    1
    50     2    32    1
    51     2    28    1
    52     4    34    1
    53     4    30    1
