@<TRIPOS>MOLECULE
*****
 50 53 0 0 0
SMALL
GASTEIGER

@<TRIPOS>ATOM
     1 C         -0.164928   0.91419   1.976831 C.3        1 UNL1     0.1889
     2 C         0.35267   -0.193806   1.0206 C.3        1 UNL1     0.1342
     3 C         -0.040113   -1.623444   1.423494 C.3        1 UNL1     0.1174
     4 C         -0.081899   -1.822207   2.940683 C.3        1 UNL1     0.1456
     5 C         -0.830909   -0.688182   3.664104 C.3        1 UNL1     0.2326
     6 O         -0.230894   0.567022   3.352156 O.3        1 UNL1     -0.3076
     7 O         -2.252619   -0.706745   3.441132 O.3        1 UNL1     -0.4605
     8 C         -3.035443   -0.237485   4.480607 C.ar        1 UNL1     0.1310
     9 C         -2.87831   -0.574295   5.829373 C.ar        1 UNL1     0.0226
     10 C         -3.713607   -0.031407   6.812965 C.ar        1 UNL1     0.1343
     11 C         -4.712067   0.880779   6.47409 C.ar        1 UNL1     0.1007
     12 C         -4.905162   1.193316   5.125825 C.ar        1 UNL1     0.1389
     13 C         -4.066849   0.645276   4.136726 C.ar        1 UNL1     0.0229
     14 C         -5.56812   1.548882   7.481544 C.2        1 UNL1     0.1740
     15 C         -6.432322   2.661135   6.964247 C.3        1 UNL1     0.0520
     16 C         -6.992545   2.246313   5.610722 C.3        1 UNL1     0.1322
     17 O         -5.92582   1.994752   4.669508 O.3        1 UNL1     -0.4828
     18 C         -8.041625   1.134798   5.692503 C.ar        1 UNL1     -0.0067
     19 C         -7.933839   0.016705   4.840175 C.ar        1 UNL1     -0.0516
     20 C         -8.901844   -0.99457   4.856022 C.ar        1 UNL1     -0.0198
     21 C         -9.983806   -0.896054   5.712457 C.ar        1 UNL1     0.1169
     22 C         -10.100078   0.176272   6.58735 C.ar        1 UNL1     -0.0198
     23 C         -9.122545   1.178509   6.584745 C.ar        1 UNL1     -0.0516
     24 O         -10.926241   -1.881278   5.673084 O.3        1 UNL1     -0.5068
     25 O         -5.53342   1.284492   8.680452 O.2        1 UNL1     -0.2917
     26 O         -3.508537   -0.401637   8.110062 O.3        1 UNL1     -0.5058
     27 O         -1.364525   1.528431   1.533591 O.3        1 UNL1     -0.3648
     28 O         1.790943   -0.136569   0.992319 O.3        1 UNL1     -0.3841
     29 O         -1.254292   -2.016039   0.780244 O.3        1 UNL1     -0.3863
     30 O         1.268934   -1.883571   3.447807 O.3        1 UNL1     -0.3829
     31 H         0.576197   1.720523   1.951544 H        1 UNL1     0.0937
     32 H         0.0   0.0   0.0 H        1 UNL1     0.0671
     33 H         0.72953   -2.304822   1.034788 H        1 UNL1     0.0649
     34 H         -0.557729   -2.779797   3.179446 H        1 UNL1     0.0683
     35 H         -0.636956   -0.879029   4.727042 H        1 UNL1     0.1085
     36 H         -2.085311   -1.234242   6.163653 H        1 UNL1     0.0691
     37 H         -4.238651   0.903701   3.094041 H        1 UNL1     0.0691
     38 H         -5.804574   3.55416   6.874989 H        1 UNL1     0.0385
     39 H         -7.222803   2.870156   7.693101 H        1 UNL1     0.0385
     40 H         -7.522266   3.116158   5.199278 H        1 UNL1     0.0789
     41 H         -7.098851   -0.079485   4.152284 H        1 UNL1     0.0623
     42 H         -8.813781   -1.845863   4.185532 H        1 UNL1     0.0654
     43 H         -10.935414   0.255812   7.272767 H        1 UNL1     0.0654
     44 H         -9.239642   1.996515   7.289018 H        1 UNL1     0.0623
     45 H         -10.970096   -2.298903   6.548517 H        1 UNL1     0.2921
     46 H         -3.354976   0.388624   8.651651 H        1 UNL1     0.2922
     47 H         -1.248183   1.885694   0.642139 H        1 UNL1     0.2126
     48 H         2.02902   0.745255   0.646719 H        1 UNL1     0.2101
     49 H         -1.102287   -2.127626   -0.171721 H        1 UNL1     0.2100
     50 H         1.690212   -2.690886   3.086587 H        1 UNL1     0.2102
@<TRIPOS>BOND
     1     1     2    1
     2     1     6    1
     3     2     3    1
     4     3     4    1
     5     3    29    1
     6     3    33    1
     7     4     5    1
     8     5     6    1
     9     5     7    1
    10     5    35    1
    11     7     8    1
    12     8     9   ar
    13     8    13   ar
    14     9    10   ar
    15     9    36    1
    16    10    11   ar
    17    10    26    1
    18    11    12   ar
    19    11    14    1
    20    12    13   ar
    21    12    17    1
    22    13    37    1
    23    14    15    1
    24    14    25    2
    25    15    16    1
    26    15    38    1
    27    15    39    1
    28    16    17    1
    29    16    18    1
    30    16    40    1
    31    18    19   ar
    32    18    23   ar
    33    19    20   ar
    34    19    41    1
    35    20    21   ar
    36    20    42    1
    37    21    22   ar
    38    21    24    1
    39    22    23   ar
    40    22    43    1
    41    23    44    1
    42    24    45    1
    43    26    46    1
    44    27    47    1
    45    28    48    1
    46    29    49    1
    47    30    50    1
    48     1    31    1
    49     1    27    1
    50     2    32    1
    51     2    28    1
    52     4    34    1
    53     4    30    1
