@<TRIPOS>MOLECULE
*****
 50 53 0 0 0
SMALL
GASTEIGER

@<TRIPOS>ATOM
     1 C         0.604813   -1.511975   -1.455657 C.3        1 UNL1     0.1889
     2 C         0.302455   -1.054548   -0.003321 C.3        1 UNL1     0.1342
     3 C         1.463819   -1.245874   0.984147 C.3        1 UNL1     0.1174
     4 C         2.293629   -2.49785   0.68904 C.3        1 UNL1     0.1456
     5 C         2.648402   -2.632629   -0.80305 C.3        1 UNL1     0.2326
     6 O         1.457564   -2.639777   -1.587092 O.3        1 UNL1     -0.3076
     7 O         3.615596   -1.665974   -1.251865 O.3        1 UNL1     -0.4605
     8 C         3.809904   -1.592817   -2.619498 C.ar        1 UNL1     0.1310
     9 C         5.039906   -1.730567   -3.271741 C.ar        1 UNL1     0.0226
     10 C         5.131521   -1.657489   -4.666792 C.ar        1 UNL1     0.1343
     11 C         3.990725   -1.468452   -5.445695 C.ar        1 UNL1     0.1007
     12 C         2.762688   -1.288551   -4.803555 C.ar        1 UNL1     0.1389
     13 C         2.671222   -1.359433   -3.400687 C.ar        1 UNL1     0.0229
     14 C         4.017952   -1.46709   -6.926712 C.2        1 UNL1     0.1740
     15 C         2.677372   -1.475476   -7.600749 C.3        1 UNL1     0.0520
     16 C         1.746261   -0.547302   -6.832971 C.3        1 UNL1     0.1322
     17 O         1.594823   -0.988982   -5.465837 O.3        1 UNL1     -0.4828
     18 C         2.091328   0.936031   -6.985863 C.ar        1 UNL1     -0.0067
     19 C         1.056928   1.868525   -7.206509 C.ar        1 UNL1     -0.0516
     20 C         1.342077   3.225749   -7.397806 C.ar        1 UNL1     -0.0198
     21 C         2.655107   3.66094   -7.378096 C.ar        1 UNL1     0.1169
     22 C         3.69292   2.772041   -7.129816 C.ar        1 UNL1     -0.0198
     23 C         3.406635   1.41774   -6.920135 C.ar        1 UNL1     -0.0516
     24 O         2.897062   4.983797   -7.60593 O.3        1 UNL1     -0.5068
     25 O         5.053206   -1.535991   -7.583969 O.2        1 UNL1     -0.2917
     26 O         6.361061   -1.798809   -5.241114 O.3        1 UNL1     -0.5058
     27 O         1.002455   -0.452199   -2.310959 O.3        1 UNL1     -0.3648
     28 O         -0.812105   -1.818886   0.492917 O.3        1 UNL1     -0.3841
     29 O         2.25922   -0.061561   1.067043 O.3        1 UNL1     -0.3863
     30 O         1.549282   -3.666451   1.096482 O.3        1 UNL1     -0.3829
     31 H         -0.344569   -1.858126   -1.87866 H        1 UNL1     0.0937
     32 H         0.0   0.0   0.0 H        1 UNL1     0.0671
     33 H         1.033284   -1.378934   1.986472 H        1 UNL1     0.0649
     34 H         3.21598   -2.483105   1.280186 H        1 UNL1     0.0683
     35 H         3.087628   -3.635067   -0.881008 H        1 UNL1     0.1085
     36 H         5.954746   -1.935071   -2.726427 H        1 UNL1     0.0691
     37 H         1.703607   -1.214929   -2.924943 H        1 UNL1     0.0691
     38 H         2.306616   -2.505961   -7.5878 H        1 UNL1     0.0385
     39 H         2.798861   -1.168775   -8.645236 H        1 UNL1     0.0385
     40 H         0.744847   -0.659257   -7.270184 H        1 UNL1     0.0789
     41 H         0.018779   1.550641   -7.235613 H        1 UNL1     0.0623
     42 H         0.536573   3.933123   -7.578906 H        1 UNL1     0.0654
     43 H         4.723576   3.104607   -7.097287 H        1 UNL1     0.0654
     44 H         4.24113   0.75309   -6.718384 H        1 UNL1     0.0623
     45 H         2.25395   5.505032   -7.098547 H        1 UNL1     0.2921
     46 H         6.647267   -0.946803   -5.606604 H        1 UNL1     0.2922
     47 H         1.715665   -0.74371   -2.895949 H        1 UNL1     0.2126
     48 H         -0.594883   -2.759265   0.343806 H        1 UNL1     0.2101
     49 H         3.12068   -0.269606   1.462514 H        1 UNL1     0.2100
     50 H         1.476614   -3.65219   2.073329 H        1 UNL1     0.2102
@<TRIPOS>BOND
     1     1     2    1
     2     1     6    1
     3     2     3    1
     4     3     4    1
     5     3    29    1
     6     3    33    1
     7     4     5    1
     8     5     6    1
     9     5     7    1
    10     5    35    1
    11     7     8    1
    12     8     9   ar
    13     8    13   ar
    14     9    10   ar
    15     9    36    1
    16    10    11   ar
    17    10    26    1
    18    11    12   ar
    19    11    14    1
    20    12    13   ar
    21    12    17    1
    22    13    37    1
    23    14    15    1
    24    14    25    2
    25    15    16    1
    26    15    38    1
    27    15    39    1
    28    16    17    1
    29    16    18    1
    30    16    40    1
    31    18    19   ar
    32    18    23   ar
    33    19    20   ar
    34    19    41    1
    35    20    21   ar
    36    20    42    1
    37    21    22   ar
    38    21    24    1
    39    22    23   ar
    40    22    43    1
    41    23    44    1
    42    24    45    1
    43    26    46    1
    44    27    47    1
    45    28    48    1
    46    29    49    1
    47    30    50    1
    48     1    31    1
    49     1    27    1
    50     2    32    1
    51     2    28    1
    52     4    34    1
    53     4    30    1
