@<TRIPOS>MOLECULE
*****
 50 53 0 0 0
SMALL
GASTEIGER

@<TRIPOS>ATOM
     1 C         -0.555984   -1.792105   1.118054 C.3        1 UNL1     0.1889
     2 C         0.218676   -1.074867   -0.020107 C.3        1 UNL1     0.1342
     3 C         -0.064322   -1.617531   -1.429324 C.3        1 UNL1     0.1174
     4 C         -0.305605   -3.129029   -1.445872 C.3        1 UNL1     0.1456
     5 C         -1.276428   -3.583878   -0.340892 C.3        1 UNL1     0.2326
     6 O         -0.783368   -3.181784   0.93507 O.3        1 UNL1     -0.3076
     7 O         -2.638615   -3.181817   -0.573515 O.3        1 UNL1     -0.4605
     8 C         -3.545125   -3.508953   0.41883 C.ar        1 UNL1     0.1310
     9 C         -4.789746   -2.9   0.612211 C.ar        1 UNL1     0.0226
     10 C         -5.64684   -3.314933   1.638428 C.ar        1 UNL1     0.1343
     11 C         -5.289832   -4.365919   2.482119 C.ar        1 UNL1     0.1007
     12 C         -4.032205   -4.954475   2.324759 C.ar        1 UNL1     0.1389
     13 C         -3.169478   -4.535313   1.294499 C.ar        1 UNL1     0.0229
     14 C         -6.191552   -4.900309   3.528771 C.2        1 UNL1     0.1740
     15 C         -5.73889   -6.169005   4.189874 C.3        1 UNL1     0.0520
     16 C         -4.236158   -6.08336   4.418827 C.3        1 UNL1     0.1322
     17 O         -3.534924   -5.922584   3.166033 O.3        1 UNL1     -0.4828
     18 C         -3.834308   -5.08139   5.50386 C.ar        1 UNL1     -0.0067
     19 C         -4.44466   -3.810637   5.533362 C.ar        1 UNL1     -0.0516
     20 C         -4.066374   -2.853938   6.482882 C.ar        1 UNL1     -0.0198
     21 C         -3.076051   -3.152494   7.40155 C.ar        1 UNL1     0.1169
     22 C         -2.480021   -4.4068   7.418954 C.ar        1 UNL1     -0.0198
     23 C         -2.87113   -5.370056   6.481283 C.ar        1 UNL1     -0.0516
     24 O         -2.707383   -2.182639   8.286912 O.3        1 UNL1     -0.5068
     25 O         -7.281156   -4.403062   3.800789 O.2        1 UNL1     -0.2917
     26 O         -6.846325   -2.679017   1.774186 O.3        1 UNL1     -0.5058
     27 O         -1.739333   -1.114982   1.510452 O.3        1 UNL1     -0.3648
     28 O         1.629643   -1.227078   0.222192 O.3        1 UNL1     -0.3841
     29 O         -1.118458   -0.881944   -2.053697 O.3        1 UNL1     -0.3863
     30 O         0.954278   -3.811867   -1.266661 O.3        1 UNL1     -0.3829
     31 H         0.08455   -1.75217   2.005861 H        1 UNL1     0.0937
     32 H         0.0   0.0   0.0 H        1 UNL1     0.0671
     33 H         0.826301   -1.431112   -2.045569 H        1 UNL1     0.0649
     34 H         -0.69964   -3.434187   -2.421585 H        1 UNL1     0.0683
     35 H         -1.220266   -4.679159   -0.373844 H        1 UNL1     0.1085
     36 H         -5.148915   -2.11544   -0.04474 H        1 UNL1     0.0691
     37 H         -2.19528   -5.008913   1.193829 H        1 UNL1     0.0691
     38 H         -5.98978   -6.998924   3.520684 H        1 UNL1     0.0385
     39 H         -6.293149   -6.30403   5.124938 H        1 UNL1     0.0385
     40 H         -3.909313   -7.063137   4.792631 H        1 UNL1     0.0789
     41 H         -5.218073   -3.548642   4.817233 H        1 UNL1     0.0623
     42 H         -4.536105   -1.873458   6.487819 H        1 UNL1     0.0654
     43 H         -1.7141   -4.656311   8.143537 H        1 UNL1     0.0654
     44 H         -2.391861   -6.343047   6.530615 H        1 UNL1     0.0623
     45 H         -2.525498   -1.367875   7.791135 H        1 UNL1     0.2921
     46 H         -7.551606   -3.237686   1.411033 H        1 UNL1     0.2922
     47 H         -2.107338   -1.51915   2.308626 H        1 UNL1     0.2126
     48 H         1.971009   -1.818921   -0.475607 H        1 UNL1     0.2101
     49 H         -1.706529   -1.488699   -2.530997 H        1 UNL1     0.2100
     50 H         0.827227   -4.505489   -0.586618 H        1 UNL1     0.2102
@<TRIPOS>BOND
     1     1     2    1
     2     1     6    1
     3     2     3    1
     4     3     4    1
     5     3    29    1
     6     3    33    1
     7     4     5    1
     8     5     6    1
     9     5     7    1
    10     5    35    1
    11     7     8    1
    12     8     9   ar
    13     8    13   ar
    14     9    10   ar
    15     9    36    1
    16    10    11   ar
    17    10    26    1
    18    11    12   ar
    19    11    14    1
    20    12    13   ar
    21    12    17    1
    22    13    37    1
    23    14    15    1
    24    14    25    2
    25    15    16    1
    26    15    38    1
    27    15    39    1
    28    16    17    1
    29    16    18    1
    30    16    40    1
    31    18    19   ar
    32    18    23   ar
    33    19    20   ar
    34    19    41    1
    35    20    21   ar
    36    20    42    1
    37    21    22   ar
    38    21    24    1
    39    22    23   ar
    40    22    43    1
    41    23    44    1
    42    24    45    1
    43    26    46    1
    44    27    47    1
    45    28    48    1
    46    29    49    1
    47    30    50    1
    48     1    31    1
    49     1    27    1
    50     2    32    1
    51     2    28    1
    52     4    34    1
    53     4    30    1
