@<TRIPOS>MOLECULE
*****
 50 53 0 0 0
SMALL
GASTEIGER

@<TRIPOS>ATOM
     1 C         -0.621275   -1.02715   1.82477 C.3        1 UNL1     0.1889
     2 C         -0.914656   -0.13125   0.591388 C.3        1 UNL1     0.1342
     3 C         -1.497325   1.250313   0.926416 C.3        1 UNL1     0.1174
     4 C         -2.425722   1.223708   2.143169 C.3        1 UNL1     0.1456
     5 C         -1.826999   0.439958   3.325383 C.3        1 UNL1     0.2326
     6 O         -1.516247   -0.890819   2.918769 O.3        1 UNL1     -0.3076
     7 O         -0.721779   1.11125   3.957187 O.3        1 UNL1     -0.4605
     8 C         0.413415   1.270641   3.18294 C.ar        1 UNL1     0.1310
     9 C         0.773803   2.439724   2.504218 C.ar        1 UNL1     0.0226
     10 C         1.956028   2.507855   1.757489 C.ar        1 UNL1     0.1343
     11 C         2.819278   1.415065   1.69079 C.ar        1 UNL1     0.1007
     12 C         2.449998   0.228889   2.330635 C.ar        1 UNL1     0.1389
     13 C         1.259927   0.159795   3.079226 C.ar        1 UNL1     0.0229
     14 C         4.121316   1.459204   0.985875 C.2        1 UNL1     0.1740
     15 C         5.017622   0.275542   1.202965 C.3        1 UNL1     0.0520
     16 C         4.162903   -0.984341   1.192597 C.3        1 UNL1     0.1322
     17 O         3.17062   -0.939463   2.241611 O.3        1 UNL1     -0.4828
     18 C         3.609765   -1.342316   -0.18893 C.ar        1 UNL1     -0.0067
     19 C         4.47522   -1.344574   -1.302122 C.ar        1 UNL1     -0.0516
     20 C         3.992388   -1.62102   -2.586806 C.ar        1 UNL1     -0.0198
     21 C         2.647869   -1.888897   -2.772112 C.ar        1 UNL1     0.1169
     22 C         1.777002   -1.926922   -1.690917 C.ar        1 UNL1     -0.0198
     23 C         2.26299   -1.668668   -0.403603 C.ar        1 UNL1     -0.0516
     24 O         2.207161   -2.116254   -4.042736 O.3        1 UNL1     -0.5068
     25 O         4.500926   2.423492   0.326687 O.2        1 UNL1     -0.2917
     26 O         2.24914   3.677058   1.118243 O.3        1 UNL1     -0.5058
     27 O         0.732473   -0.982389   2.246848 O.3        1 UNL1     -0.3648
     28 O         -1.870301   -0.807467   -0.246574 O.3        1 UNL1     -0.3841
     29 O         -0.457941   2.223897   1.044518 O.3        1 UNL1     -0.3863
     30 O         -3.679749   0.612916   1.768951 O.3        1 UNL1     -0.3829
     31 H         -0.768652   -2.063252   1.500963 H        1 UNL1     0.0937
     32 H         0.0   0.0   0.0 H        1 UNL1     0.0671
     33 H         -2.104954   1.574632   0.070072 H        1 UNL1     0.0649
     34 H         -2.650709   2.246753   2.464357 H        1 UNL1     0.0683
     35 H         -2.654656   0.369382   4.042239 H        1 UNL1     0.1085
     36 H         0.173437   3.340994   2.562482 H        1 UNL1     0.0691
     37 H         0.994526   -0.77566   3.567059 H        1 UNL1     0.0691
     38 H         5.513359   0.408542   2.170478 H        1 UNL1     0.0385
     39 H         5.787117   0.26027   0.423592 H        1 UNL1     0.0385
     40 H         4.817454   -1.821847   1.469482 H        1 UNL1     0.0789
     41 H         5.53306   -1.128374   -1.184293 H        1 UNL1     0.0623
     42 H         4.667564   -1.608028   -3.438851 H        1 UNL1     0.0654
     43 H         0.725057   -2.150411   -1.822731 H        1 UNL1     0.0654
     44 H         1.556461   -1.717224   0.419382 H        1 UNL1     0.0623
     45 H         2.319683   -3.059805   -4.242152 H        1 UNL1     0.2921
     46 H         2.135888   4.419101   1.733026 H        1 UNL1     0.2922
     47 H         0.833827   -1.435984   3.095282 H        1 UNL1     0.2126
     48 H         -1.385008   -1.105789   -1.039812 H        1 UNL1     0.2101
     49 H         0.375469   1.859603   0.706122 H        1 UNL1     0.2100
     50 H         -3.498711   -0.035824   1.057563 H        1 UNL1     0.2102
@<TRIPOS>BOND
     1     1     2    1
     2     1     6    1
     3     2     3    1
     4     3     4    1
     5     3    29    1
     6     3    33    1
     7     4     5    1
     8     5     6    1
     9     5     7    1
    10     5    35    1
    11     7     8    1
    12     8     9   ar
    13     8    13   ar
    14     9    10   ar
    15     9    36    1
    16    10    11   ar
    17    10    26    1
    18    11    12   ar
    19    11    14    1
    20    12    13   ar
    21    12    17    1
    22    13    37    1
    23    14    15    1
    24    14    25    2
    25    15    16    1
    26    15    38    1
    27    15    39    1
    28    16    17    1
    29    16    18    1
    30    16    40    1
    31    18    19   ar
    32    18    23   ar
    33    19    20   ar
    34    19    41    1
    35    20    21   ar
    36    20    42    1
    37    21    22   ar
    38    21    24    1
    39    22    23   ar
    40    22    43    1
    41    23    44    1
    42    24    45    1
    43    26    46    1
    44    27    47    1
    45    28    48    1
    46    29    49    1
    47    30    50    1
    48     1    31    1
    49     1    27    1
    50     2    32    1
    51     2    28    1
    52     4    34    1
    53     4    30    1
