@<TRIPOS>MOLECULE
*****
 50 53 0 0 0
SMALL
GASTEIGER

@<TRIPOS>ATOM
     1 C         -0.35033   -1.338476   1.690134 C.3        1 UNL1     0.1889
     2 C         -0.471587   -0.972864   0.186284 C.3        1 UNL1     0.1342
     3 C         -1.91006   -0.943844   -0.352621 C.3        1 UNL1     0.1174
     4 C         -2.8081   -2.000498   0.295549 C.3        1 UNL1     0.1456
     5 C         -2.662999   -2.03892   1.827813 C.3        1 UNL1     0.2326
     6 O         -1.301468   -2.271399   2.181444 O.3        1 UNL1     -0.3076
     7 O         -3.230757   -0.892023   2.486296 O.3        1 UNL1     -0.4605
     8 C         -3.75453   -1.114491   3.747129 C.ar        1 UNL1     0.1310
     9 C         -4.585738   -2.182254   4.102484 C.ar        1 UNL1     0.0226
     10 C         -5.052421   -2.330761   5.413992 C.ar        1 UNL1     0.1343
     11 C         -4.679486   -1.427423   6.408347 C.ar        1 UNL1     0.1007
     12 C         -3.883236   -0.334221   6.056665 C.ar        1 UNL1     0.1389
     13 C         -3.416276   -0.183656   4.737305 C.ar        1 UNL1     0.0229
     14 C         -5.074926   -1.583213   7.827329 C.2        1 UNL1     0.1740
     15 C         -4.404784   -0.651681   8.79413 C.3        1 UNL1     0.0520
     16 C         -4.314736   0.725894   8.152151 C.3        1 UNL1     0.1322
     17 O         -3.545407   0.673019   6.93051 O.3        1 UNL1     -0.4828
     18 C         -5.665286   1.434115   8.021158 C.ar        1 UNL1     -0.0067
     19 C         -6.025629   2.015606   6.78818 C.ar        1 UNL1     -0.0516
     20 C         -7.232219   2.711543   6.647556 C.ar        1 UNL1     -0.0198
     21 C         -8.081766   2.839032   7.731919 C.ar        1 UNL1     0.1169
     22 C         -7.770151   2.248844   8.949874 C.ar        1 UNL1     -0.0198
     23 C         -6.572224   1.537102   9.085702 C.ar        1 UNL1     -0.0516
     24 O         -9.23031   3.556123   7.567523 O.3        1 UNL1     -0.5068
     25 O         -5.836896   -2.460827   8.224419 O.2        1 UNL1     -0.2917
     26 O         -5.860842   -3.39336   5.694925 O.3        1 UNL1     -0.5058
     27 O         -0.23872   -0.207698   2.539647 O.3        1 UNL1     -0.3648
     28 O         0.253653   -1.951649   -0.580992 O.3        1 UNL1     -0.3841
     29 O         -2.456526   0.373897   -0.268562 O.3        1 UNL1     -0.3863
     30 O         -2.469575   -3.30018   -0.235408 O.3        1 UNL1     -0.3829
     31 H         0.605407   -1.860489   1.809085 H        1 UNL1     0.0937
     32 H         0.0   0.0   0.0 H        1 UNL1     0.0671
     33 H         -1.870704   -1.175449   -1.426181 H        1 UNL1     0.0649
     34 H         -3.855593   -1.811163   0.036104 H        1 UNL1     0.0683
     35 H         -3.226626   -2.932305   2.124571 H        1 UNL1     0.1085
     36 H         -4.86591   -2.94891   3.388438 H        1 UNL1     0.0691
     37 H         -2.79862   0.676752   4.488928 H        1 UNL1     0.0691
     38 H         -3.408626   -1.054616   9.005882 H        1 UNL1     0.0385
     39 H         -4.973435   -0.635899   9.730167 H        1 UNL1     0.0385
     40 H         -3.719118   1.358065   8.824549 H        1 UNL1     0.0789
     41 H         -5.371776   1.937399   5.924461 H        1 UNL1     0.0623
     42 H         -7.493293   3.165663   5.694861 H        1 UNL1     0.0654
     43 H         -8.435255   2.329694   9.801349 H        1 UNL1     0.0654
     44 H         -6.365726   1.07995   10.048622 H        1 UNL1     0.0623
     45 H         -8.991689   4.471842   7.350184 H        1 UNL1     0.2921
     46 H         -5.46985   -3.916527   6.412444 H        1 UNL1     0.2922
     47 H         0.50422   0.346776   2.263139 H        1 UNL1     0.2126
     48 H         1.192666   -1.866803   -0.326457 H        1 UNL1     0.2101
     49 H         -2.015904   0.955331   -0.908547 H        1 UNL1     0.2100
     50 H         -2.704286   -3.307799   -1.186495 H        1 UNL1     0.2102
@<TRIPOS>BOND
     1     1     2    1
     2     1     6    1
     3     2     3    1
     4     3     4    1
     5     3    29    1
     6     3    33    1
     7     4     5    1
     8     5     6    1
     9     5     7    1
    10     5    35    1
    11     7     8    1
    12     8     9   ar
    13     8    13   ar
    14     9    10   ar
    15     9    36    1
    16    10    11   ar
    17    10    26    1
    18    11    12   ar
    19    11    14    1
    20    12    13   ar
    21    12    17    1
    22    13    37    1
    23    14    15    1
    24    14    25    2
    25    15    16    1
    26    15    38    1
    27    15    39    1
    28    16    17    1
    29    16    18    1
    30    16    40    1
    31    18    19   ar
    32    18    23   ar
    33    19    20   ar
    34    19    41    1
    35    20    21   ar
    36    20    42    1
    37    21    22   ar
    38    21    24    1
    39    22    23   ar
    40    22    43    1
    41    23    44    1
    42    24    45    1
    43    26    46    1
    44    27    47    1
    45    28    48    1
    46    29    49    1
    47    30    50    1
    48     1    31    1
    49     1    27    1
    50     2    32    1
    51     2    28    1
    52     4    34    1
    53     4    30    1
