@<TRIPOS>MOLECULE
*****
 50 53 0 0 0
SMALL
GASTEIGER

@<TRIPOS>ATOM
     1 C         -0.908714   0.24564   -1.970966 C.3        1 UNL1     0.1889
     2 C         0.327161   0.110196   -1.041338 C.3        1 UNL1     0.1342
     3 C         1.328061   1.272297   -1.131825 C.3        1 UNL1     0.1174
     4 C         1.441143   1.849509   -2.545032 C.3        1 UNL1     0.1456
     5 C         0.066827   2.091406   -3.195499 C.3        1 UNL1     0.2326
     6 O         -0.678895   0.876477   -3.222214 O.3        1 UNL1     -0.3076
     7 O         -0.658981   3.188116   -2.610905 O.3        1 UNL1     -0.4605
     8 C         -0.499503   3.36268   -1.247959 C.ar        1 UNL1     0.1310
     9 C         0.683494   3.758566   -0.61464 C.ar        1 UNL1     0.0226
     10 C         0.740251   3.924677   0.774276 C.ar        1 UNL1     0.1343
     11 C         -0.392172   3.721773   1.56186 C.ar        1 UNL1     0.1007
     12 C         -1.568351   3.286521   0.945464 C.ar        1 UNL1     0.1389
     13 C         -1.624448   3.117013   -0.450799 C.ar        1 UNL1     0.0229
     14 C         -0.410757   3.963865   3.023092 C.2        1 UNL1     0.1740
     15 C         -1.762381   3.911941   3.672681 C.3        1 UNL1     0.0520
     16 C         -2.548164   2.761533   3.058626 C.3        1 UNL1     0.1322
     17 O         -2.710434   2.953126   1.635942 O.3        1 UNL1     -0.4828
     18 C         -2.028264   1.378215   3.457197 C.ar        1 UNL1     -0.0067
     19 C         -2.741037   0.617662   4.40679 C.ar        1 UNL1     -0.0516
     20 C         -2.268043   -0.630651   4.828637 C.ar        1 UNL1     -0.0198
     21 C         -1.082448   -1.125048   4.315059 C.ar        1 UNL1     0.1169
     22 C         -0.375381   -0.414557   3.353759 C.ar        1 UNL1     -0.0198
     23 C         -0.857716   0.825439   2.918077 C.ar        1 UNL1     -0.0516
     24 O         -0.633574   -2.327099   4.777648 O.3        1 UNL1     -0.5068
     25 O         0.587371   4.268582   3.670683 O.2        1 UNL1     -0.2917
     26 O         1.924758   4.311372   1.330151 O.3        1 UNL1     -0.5058
     27 O         -2.05127   0.77663   -1.318738 O.3        1 UNL1     -0.3648
     28 O         1.034407   -1.092844   -1.395177 O.3        1 UNL1     -0.3841
     29 O         1.03887   2.268277   -0.148705 O.3        1 UNL1     -0.3863
     30 O         2.191344   0.933699   -3.372184 O.3        1 UNL1     -0.3829
     31 H         -1.204907   -0.772043   -2.24786 H        1 UNL1     0.0937
     32 H         0.0   0.0   0.0 H        1 UNL1     0.0671
     33 H         2.320624   0.881318   -0.867865 H        1 UNL1     0.0649
     34 H         2.000539   2.791254   -2.520705 H        1 UNL1     0.0683
     35 H         0.307171   2.341084   -4.236544 H        1 UNL1     0.1085
     36 H         1.582665   3.985913   -1.176712 H        1 UNL1     0.0691
     37 H         -2.551797   2.776264   -0.906219 H        1 UNL1     0.0691
     38 H         -2.25642   4.871504   3.486427 H        1 UNL1     0.0385
     39 H         -1.636442   3.796382   4.754607 H        1 UNL1     0.0385
     40 H         -3.568772   2.815439   3.461085 H        1 UNL1     0.0789
     41 H         -3.669516   0.987767   4.831761 H        1 UNL1     0.0623
     42 H         -2.820574   -1.202229   5.570271 H        1 UNL1     0.0654
     43 H         0.546353   -0.79924   2.933836 H        1 UNL1     0.0654
     44 H         -0.285253   1.348458   2.158088 H        1 UNL1     0.0623
     45 H         -1.385029   -2.940703   4.81665 H        1 UNL1     0.2921
     46 H         2.134785   5.21554   1.047696 H        1 UNL1     0.2922
     47 H         -2.513978   1.393324   -1.903074 H        1 UNL1     0.2126
     48 H         1.345845   -0.974459   -2.313177 H        1 UNL1     0.2101
     49 H         1.622768   3.033483   -0.272469 H        1 UNL1     0.2100
     50 H         3.114626   0.919049   -3.045 H        1 UNL1     0.2102
@<TRIPOS>BOND
     1     1     2    1
     2     1     6    1
     3     2     3    1
     4     3     4    1
     5     3    29    1
     6     3    33    1
     7     4     5    1
     8     5     6    1
     9     5     7    1
    10     5    35    1
    11     7     8    1
    12     8     9   ar
    13     8    13   ar
    14     9    10   ar
    15     9    36    1
    16    10    11   ar
    17    10    26    1
    18    11    12   ar
    19    11    14    1
    20    12    13   ar
    21    12    17    1
    22    13    37    1
    23    14    15    1
    24    14    25    2
    25    15    16    1
    26    15    38    1
    27    15    39    1
    28    16    17    1
    29    16    18    1
    30    16    40    1
    31    18    19   ar
    32    18    23   ar
    33    19    20   ar
    34    19    41    1
    35    20    21   ar
    36    20    42    1
    37    21    22   ar
    38    21    24    1
    39    22    23   ar
    40    22    43    1
    41    23    44    1
    42    24    45    1
    43    26    46    1
    44    27    47    1
    45    28    48    1
    46    29    49    1
    47    30    50    1
    48     1    31    1
    49     1    27    1
    50     2    32    1
    51     2    28    1
    52     4    34    1
    53     4    30    1
