@<TRIPOS>MOLECULE
*****
 50 53 0 0 0
SMALL
GASTEIGER

@<TRIPOS>ATOM
     1 C         -1.282294   -1.747761   0.268065 C.3        1 UNL1     0.1889
     2 C         -0.690763   -0.397261   0.75405 C.3        1 UNL1     0.1342
     3 C         0.030593   -0.463671   2.10893 C.3        1 UNL1     0.1174
     4 C         -0.616903   -1.455997   3.07803 C.3        1 UNL1     0.1456
     5 C         -0.931053   -2.809347   2.414616 C.3        1 UNL1     0.2326
     6 O         -1.77438   -2.611408   1.282146 O.3        1 UNL1     -0.3076
     7 O         0.242214   -3.588015   2.117226 O.3        1 UNL1     -0.4605
     8 C         0.837149   -3.344267   0.892413 C.ar        1 UNL1     0.1310
     9 C         2.161921   -2.936919   0.701766 C.ar        1 UNL1     0.0226
     10 C         2.678231   -2.731798   -0.583244 C.ar        1 UNL1     0.1343
     11 C         1.888408   -2.952293   -1.710809 C.ar        1 UNL1     0.1007
     12 C         0.552022   -3.319525   -1.531929 C.ar        1 UNL1     0.1389
     13 C         0.032355   -3.523148   -0.239677 C.ar        1 UNL1     0.0229
     14 C         2.406785   -2.831992   -3.093186 C.2        1 UNL1     0.1740
     15 C         1.489095   -3.319859   -4.175488 C.3        1 UNL1     0.0520
     16 C         0.068611   -2.893748   -3.831087 C.3        1 UNL1     0.1322
     17 O         -0.343707   -3.458015   -2.566703 O.3        1 UNL1     -0.4828
     18 C         -0.171886   -1.387869   -3.962282 C.ar        1 UNL1     -0.0067
     19 C         -1.184339   -0.920858   -4.825447 C.ar        1 UNL1     -0.0516
     20 C         -1.399127   0.450885   -5.004754 C.ar        1 UNL1     -0.0198
     21 C         -0.605147   1.363693   -4.333782 C.ar        1 UNL1     0.1169
     22 C         0.377762   0.934556   -3.451417 C.ar        1 UNL1     -0.0198
     23 C         0.580563   -0.437104   -3.257824 C.ar        1 UNL1     -0.0516
     24 O         -0.818692   2.691297   -4.562405 O.3        1 UNL1     -0.5068
     25 O         3.539435   -2.438144   -3.358656 O.2        1 UNL1     -0.2917
     26 O         3.977944   -2.333599   -0.700591 O.3        1 UNL1     -0.5058
     27 O         -0.442853   -2.436809   -0.644809 O.3        1 UNL1     -0.3648
     28 O         -1.766495   0.550214   0.88746 O.3        1 UNL1     -0.3841
     29 O         1.428519   -0.698699   1.928107 O.3        1 UNL1     -0.3863
     30 O         -1.845825   -0.890785   3.58397 O.3        1 UNL1     -0.3829
     31 H         -2.175797   -1.50526   -0.317533 H        1 UNL1     0.0937
     32 H         0.0   0.0   0.0 H        1 UNL1     0.0671
     33 H         -0.040446   0.528718   2.575661 H        1 UNL1     0.0649
     34 H         0.039458   -1.619436   3.939934 H        1 UNL1     0.0683
     35 H         -1.527036   -3.340797   3.167107 H        1 UNL1     0.1085
     36 H         2.842778   -2.802751   1.535165 H        1 UNL1     0.0691
     37 H         -1.011607   -3.807772   -0.127316 H        1 UNL1     0.0691
     38 H         1.575309   -4.41094   -4.215918 H        1 UNL1     0.0385
     39 H         1.821217   -2.914626   -5.137392 H        1 UNL1     0.0385
     40 H         -0.59728   -3.359822   -4.569927 H        1 UNL1     0.0789
     41 H         -1.814986   -1.617124   -5.37056 H        1 UNL1     0.0623
     42 H         -2.175152   0.79852   -5.68221 H        1 UNL1     0.0654
     43 H         0.995244   1.640847   -2.909403 H        1 UNL1     0.0654
     44 H         1.350175   -0.73675   -2.553016 H        1 UNL1     0.0623
     45 H         -1.157257   3.092579   -3.745666 H        1 UNL1     0.2921
     46 H         4.433674   -2.90155   -1.341804 H        1 UNL1     0.2922
     47 H         -0.850348   -3.273746   -0.90814 H        1 UNL1     0.2126
     48 H         -2.229904   0.570074   0.028048 H        1 UNL1     0.2101
     49 H         1.578847   -1.167838   1.091982 H        1 UNL1     0.2100
     50 H         -2.563773   -1.537689   3.423415 H        1 UNL1     0.2102
@<TRIPOS>BOND
     1     1     2    1
     2     1     6    1
     3     2     3    1
     4     3     4    1
     5     3    29    1
     6     3    33    1
     7     4     5    1
     8     5     6    1
     9     5     7    1
    10     5    35    1
    11     7     8    1
    12     8     9   ar
    13     8    13   ar
    14     9    10   ar
    15     9    36    1
    16    10    11   ar
    17    10    26    1
    18    11    12   ar
    19    11    14    1
    20    12    13   ar
    21    12    17    1
    22    13    37    1
    23    14    15    1
    24    14    25    2
    25    15    16    1
    26    15    38    1
    27    15    39    1
    28    16    17    1
    29    16    18    1
    30    16    40    1
    31    18    19   ar
    32    18    23   ar
    33    19    20   ar
    34    19    41    1
    35    20    21   ar
    36    20    42    1
    37    21    22   ar
    38    21    24    1
    39    22    23   ar
    40    22    43    1
    41    23    44    1
    42    24    45    1
    43    26    46    1
    44    27    47    1
    45    28    48    1
    46    29    49    1
    47    30    50    1
    48     1    31    1
    49     1    27    1
    50     2    32    1
    51     2    28    1
    52     4    34    1
    53     4    30    1
