@<TRIPOS>MOLECULE
*****
 50 53 0 0 0
SMALL
GASTEIGER

@<TRIPOS>ATOM
     1 C         -0.335366   -1.32987   1.699936 C.3        1 UNL1     0.1889
     2 C         -0.464214   -0.974865   0.194176 C.3        1 UNL1     0.1342
     3 C         -1.90466   -0.959265   -0.339994 C.3        1 UNL1     0.1174
     4 C         -2.793178   -2.017861   0.318053 C.3        1 UNL1     0.1456
     5 C         -2.642656   -2.045341   1.850029 C.3        1 UNL1     0.2326
     6 O         -1.278366   -2.266125   2.200507 O.3        1 UNL1     -0.3076
     7 O         -3.216117   -0.89814   2.503019 O.3        1 UNL1     -0.4605
     8 C         -3.728145   -1.11458   3.769711 C.ar        1 UNL1     0.1310
     9 C         -4.547266   -2.186465   4.140392 C.ar        1 UNL1     0.0226
     10 C         -5.002457   -2.328035   5.456698 C.ar        1 UNL1     0.1343
     11 C         -4.629684   -1.413244   6.440587 C.ar        1 UNL1     0.1007
     12 C         -3.845711   -0.316192   6.073642 C.ar        1 UNL1     0.1389
     13 C         -3.390322   -0.172628   4.749467 C.ar        1 UNL1     0.0229
     14 C         -5.012741   -1.560584   7.863862 C.2        1 UNL1     0.1740
     15 C         -4.343239   -0.615268   8.817641 C.3        1 UNL1     0.0520
     16 C         -4.270141   0.757623   8.163589 C.3        1 UNL1     0.1322
     17 O         -3.509878   0.701185   6.936444 O.3        1 UNL1     -0.4828
     18 C         -5.627768   1.453056   8.037309 C.ar        1 UNL1     -0.0067
     19 C         -6.002698   2.021103   6.802414 C.ar        1 UNL1     -0.0516
     20 C         -7.216342   2.705413   6.665478 C.ar        1 UNL1     -0.0198
     21 C         -8.05853   2.834622   7.755364 C.ar        1 UNL1     0.1169
     22 C         -7.732366   2.257333   8.975689 C.ar        1 UNL1     -0.0198
     23 C         -6.527284   1.557105   9.108028 C.ar        1 UNL1     -0.0516
     24 O         -9.214501   3.540387   7.594028 O.3        1 UNL1     -0.5068
     25 O         -5.763957   -2.441388   8.274159 O.2        1 UNL1     -0.2917
     26 O         -5.799415   -3.395181   5.75274 O.3        1 UNL1     -0.5058
     27 O         -0.228724   -0.192862   2.541736 O.3        1 UNL1     -0.3648
     28 O         0.265194   -1.953581   -0.569228 O.3        1 UNL1     -0.3841
     29 O         -2.459945   0.355193   -0.26259 O.3        1 UNL1     -0.3863
     30 O         -2.447458   -3.318594   -0.205646 O.3        1 UNL1     -0.3829
     31 H         0.624355   -1.844494   1.818996 H        1 UNL1     0.0937
     32 H         0.0   0.0   0.0 H        1 UNL1     0.0671
     33 H         -1.867318   -1.197551   -1.412163 H        1 UNL1     0.0649
     34 H         -3.842824   -1.837443   0.060965 H        1 UNL1     0.0683
     35 H         -3.199086   -2.940649   2.154476 H        1 UNL1     0.1085
     36 H         -4.826296   -2.961444   3.434935 H        1 UNL1     0.0691
     37 H         -2.782107   0.690969   4.489145 H        1 UNL1     0.0691
     38 H         -3.342007   -1.007818   9.02492 H        1 UNL1     0.0385
     39 H         -4.904731   -0.596574   9.757937 H        1 UNL1     0.0385
     40 H         -3.674841   1.400498   8.826046 H        1 UNL1     0.0789
     41 H         -5.354908   1.941327   5.934282 H        1 UNL1     0.0623
     42 H         -7.48873   3.149295   5.711127 H        1 UNL1     0.0654
     43 H         -8.391524   2.339553   9.831645 H        1 UNL1     0.0654
     44 H         -6.309362   1.109806   10.073056 H        1 UNL1     0.0623
     45 H         -8.986117   4.448453   7.337172 H        1 UNL1     0.2921
     46 H         -5.397651   -3.909726   6.470544 H        1 UNL1     0.2922
     47 H         0.515371   0.359971   2.265046 H        1 UNL1     0.2126
     48 H         1.198031   -1.889665   -0.287336 H        1 UNL1     0.2101
     49 H         -2.019786   0.937568   -0.902038 H        1 UNL1     0.2100
     50 H         -2.680089   -3.332081   -1.157178 H        1 UNL1     0.2102
@<TRIPOS>BOND
     1     1     2    1
     2     1     6    1
     3     2     3    1
     4     3     4    1
     5     3    29    1
     6     3    33    1
     7     4     5    1
     8     5     6    1
     9     5     7    1
    10     5    35    1
    11     7     8    1
    12     8     9   ar
    13     8    13   ar
    14     9    10   ar
    15     9    36    1
    16    10    11   ar
    17    10    26    1
    18    11    12   ar
    19    11    14    1
    20    12    13   ar
    21    12    17    1
    22    13    37    1
    23    14    15    1
    24    14    25    2
    25    15    16    1
    26    15    38    1
    27    15    39    1
    28    16    17    1
    29    16    18    1
    30    16    40    1
    31    18    19   ar
    32    18    23   ar
    33    19    20   ar
    34    19    41    1
    35    20    21   ar
    36    20    42    1
    37    21    22   ar
    38    21    24    1
    39    22    23   ar
    40    22    43    1
    41    23    44    1
    42    24    45    1
    43    26    46    1
    44    27    47    1
    45    28    48    1
    46    29    49    1
    47    30    50    1
    48     1    31    1
    49     1    27    1
    50     2    32    1
    51     2    28    1
    52     4    34    1
    53     4    30    1
