@<TRIPOS>MOLECULE
*****
 50 53 0 0 0
SMALL
GASTEIGER

@<TRIPOS>ATOM
     1 C         1.667357   0.017982   1.410816 C.3        1 UNL1     0.1889
     2 C         0.15366   0.114664   1.080186 C.3        1 UNL1     0.1342
     3 C         -0.523209   1.412269   1.547663 C.3        1 UNL1     0.1174
     4 C         0.049763   1.938999   2.865758 C.3        1 UNL1     0.1456
     5 C         1.589272   1.937996   2.882369 C.3        1 UNL1     0.2326
     6 O         2.077247   0.62258   2.628538 O.3        1 UNL1     -0.3076
     7 O         2.17245   2.933654   2.022202 O.3        1 UNL1     -0.4605
     8 C         2.642918   2.480829   0.802719 C.ar        1 UNL1     0.1310
     9 C         3.060717   3.293155   -0.256936 C.ar        1 UNL1     0.0226
     10 C         3.538809   2.737721   -1.449758 C.ar        1 UNL1     0.1343
     11 C         3.633132   1.355175   -1.603093 C.ar        1 UNL1     0.1007
     12 C         3.18051   0.533308   -0.5675 C.ar        1 UNL1     0.1389
     13 C         2.697361   1.092021   0.630764 C.ar        1 UNL1     0.0229
     14 C         4.208742   0.716098   -2.809081 C.2        1 UNL1     0.1740
     15 C         4.438002   -0.763683   -2.71297 C.3        1 UNL1     0.0520
     16 C         3.256532   -1.387873   -1.983263 C.3        1 UNL1     0.1322
     17 O         3.126879   -0.838556   -0.653409 O.3        1 UNL1     -0.4828
     18 C         1.960661   -1.390171   -2.79778 C.ar        1 UNL1     -0.0067
     19 C         0.814792   -2.023576   -2.274333 C.ar        1 UNL1     -0.0516
     20 C         -0.372675   -2.085134   -3.013316 C.ar        1 UNL1     -0.0198
     21 C         -0.424777   -1.524805   -4.277097 C.ar        1 UNL1     0.1169
     22 C         0.676934   -0.865019   -4.806015 C.ar        1 UNL1     -0.0198
     23 C         1.858897   -0.787214   -4.059715 C.ar        1 UNL1     -0.0516
     24 O         -1.586752   -1.637373   -4.982465 O.3        1 UNL1     -0.5068
     25 O         4.559196   1.343816   -3.804891 O.2        1 UNL1     -0.2917
     26 O         3.929575   3.585084   -2.445178 O.3        1 UNL1     -0.5058
     27 O         2.507067   0.393837   0.330814 O.3        1 UNL1     -0.3648
     28 O         -0.524897   -0.978941   1.725394 O.3        1 UNL1     -0.3841
     29 O         -0.512084   2.392887   0.508241 O.3        1 UNL1     -0.3863
     30 O         -0.426612   1.11529   3.952156 O.3        1 UNL1     -0.3829
     31 H         1.88649   -1.044111   1.565794 H        1 UNL1     0.0937
     32 H         0.0   0.0   0.0 H        1 UNL1     0.0671
     33 H         -1.584322   1.190699   1.7284 H        1 UNL1     0.0649
     34 H         -0.313255   2.955916   3.051499 H        1 UNL1     0.0683
     35 H         1.842737   2.176967   3.922814 H        1 UNL1     0.1085
     36 H         3.064642   4.374836   -0.179016 H        1 UNL1     0.0691
     37 H         2.349943   0.430476   1.42143 H        1 UNL1     0.0691
     38 H         5.370559   -0.919113   -2.160065 H        1 UNL1     0.0385
     39 H         4.565537   -1.173344   -3.720785 H        1 UNL1     0.0385
     40 H         3.49932   -2.446682   -1.820485 H        1 UNL1     0.0789
     41 H         0.832821   -2.479015   -1.288483 H        1 UNL1     0.0623
     42 H         -1.245899   -2.586744   -2.603586 H        1 UNL1     0.0654
     43 H         0.642402   -0.40963   -5.788532 H        1 UNL1     0.0654
     44 H         2.696811   -0.254973   -4.499563 H        1 UNL1     0.0623
     45 H         -2.153479   -0.88023   -4.762756 H        1 UNL1     0.2921
     46 H         3.435099   3.382632   -3.255067 H        1 UNL1     0.2922
     47 H         3.425774   0.456876   0.627232 H        1 UNL1     0.2126
     48 H         -0.915548   -1.523733   1.015235 H        1 UNL1     0.2101
     49 H         -1.019383   3.172628   0.784727 H        1 UNL1     0.2100
     50 H         -0.569063   0.210543   3.604516 H        1 UNL1     0.2102
@<TRIPOS>BOND
     1     1     2    1
     2     1     6    1
     3     2     3    1
     4     3     4    1
     5     3    29    1
     6     3    33    1
     7     4     5    1
     8     5     6    1
     9     5     7    1
    10     5    35    1
    11     7     8    1
    12     8     9   ar
    13     8    13   ar
    14     9    10   ar
    15     9    36    1
    16    10    11   ar
    17    10    26    1
    18    11    12   ar
    19    11    14    1
    20    12    13   ar
    21    12    17    1
    22    13    37    1
    23    14    15    1
    24    14    25    2
    25    15    16    1
    26    15    38    1
    27    15    39    1
    28    16    17    1
    29    16    18    1
    30    16    40    1
    31    18    19   ar
    32    18    23   ar
    33    19    20   ar
    34    19    41    1
    35    20    21   ar
    36    20    42    1
    37    21    22   ar
    38    21    24    1
    39    22    23   ar
    40    22    43    1
    41    23    44    1
    42    24    45    1
    43    26    46    1
    44    27    47    1
    45    28    48    1
    46    29    49    1
    47    30    50    1
    48     1    31    1
    49     1    27    1
    50     2    32    1
    51     2    28    1
    52     4    34    1
    53     4    30    1
