@<TRIPOS>MOLECULE
*****
 50 53 0 0 0
SMALL
GASTEIGER

@<TRIPOS>ATOM
     1 C         0.878469   -1.141205   -1.642177 C.3        1 UNL1     0.1889
     2 C         0.702298   -0.832573   -0.131002 C.3        1 UNL1     0.1342
     3 C         2.006685   -0.509785   0.613877 C.3        1 UNL1     0.1174
     4 C         3.203411   -1.305867   0.087362 C.3        1 UNL1     0.1456
     5 C         3.285938   -1.299899   -1.450012 C.3        1 UNL1     0.2326
     6 O         2.076274   -1.812737   -2.003708 O.3        1 UNL1     -0.3076
     7 O         3.66322   -0.024064   -1.998851 O.3        1 UNL1     -0.4605
     8 C         4.325027   -0.058272   -3.213088 C.ar        1 UNL1     0.1310
     9 C         3.914102   -0.778439   -4.339942 C.ar        1 UNL1     0.0226
     10 C         4.645593   -0.735281   -5.532821 C.ar        1 UNL1     0.1343
     11 C         5.793911   0.048767   -5.635168 C.ar        1 UNL1     0.1007
     12 C         6.236845   0.73992   -4.504283 C.ar        1 UNL1     0.1389
     13 C         5.502614   0.694264   -3.304178 C.ar        1 UNL1     0.0229
     14 C         6.558016   0.197159   -6.895436 C.2        1 UNL1     0.1740
     15 C         7.628881   1.248206   -6.885541 C.3        1 UNL1     0.0520
     16 C         8.338655   1.200199   -5.539482 C.3        1 UNL1     0.1322
     17 O         7.411294   1.454831   -4.461412 O.3        1 UNL1     -0.4828
     18 C         9.209973   -0.043275   -5.346345 C.ar        1 UNL1     -0.0067
     19 C         8.672782   -1.170374   -4.691145 C.ar        1 UNL1     -0.0516
     20 C         9.456899   -2.306103   -4.456108 C.ar        1 UNL1     -0.0198
     21 C         10.778713   -2.324312   -4.86391 C.ar        1 UNL1     0.1169
     22 C         11.326596   -1.242717   -5.541268 C.ar        1 UNL1     -0.0198
     23 C         10.537398   -0.114024   -5.792811 C.ar        1 UNL1     -0.0516
     24 O         11.522252   -3.433029   -4.58409 O.3        1 UNL1     -0.5068
     25 O         6.30001   -0.428709   -7.920233 O.2        1 UNL1     -0.2917
     26 O         4.19164   -1.461571   -6.594901 O.3        1 UNL1     -0.5058
     27 O         0.631411   -0.023306   -2.480062 O.3        1 UNL1     -0.3648
     28 O         0.119754   -1.985294   0.505066 O.3        1 UNL1     -0.3841
     29 O         2.244413   0.899207   0.632838 O.3        1 UNL1     -0.3863
     30 O         3.099646   -2.672949   0.541245 O.3        1 UNL1     -0.3829
     31 H         0.093161   -1.856901   -1.908918 H        1 UNL1     0.0937
     32 H         0.0   0.0   0.0 H        1 UNL1     0.0671
     33 H         1.871946   -0.797127   1.666018 H        1 UNL1     0.0649
     34 H         4.133435   -0.900494   0.501039 H        1 UNL1     0.0683
     35 H         4.074196   -2.029086   -1.675431 H        1 UNL1     0.1085
     36 H         3.000041   -1.362057   -4.341571 H        1 UNL1     0.0691
     37 H         5.869304   1.24042   -2.437722 H        1 UNL1     0.0691
     38 H         7.143162   2.217358   -7.041579 H        1 UNL1     0.0385
     39 H         8.314015   1.070451   -7.721467 H        1 UNL1     0.0385
     40 H         9.034163   2.04985   -5.509791 H        1 UNL1     0.0789
     41 H         7.640621   -1.177411   -4.353143 H        1 UNL1     0.0623
     42 H         9.034564   -3.164327   -3.939294 H        1 UNL1     0.0654
     43 H         12.356256   -1.252303   -5.878344 H        1 UNL1     0.0654
     44 H         10.994935   0.70863   -6.33387 H        1 UNL1     0.0623
     45 H         11.34362   -3.698786   -3.667477 H        1 UNL1     0.2921
     46 H         3.52077   -2.093521   -6.291613 H        1 UNL1     0.2922
     47 H         -0.227224   0.369549   -2.269657 H        1 UNL1     0.2126
     48 H         -0.813611   -2.020294   0.219869 H        1 UNL1     0.2101
     49 H         2.586024   1.164585   1.501556 H        1 UNL1     0.2100
     50 H         3.217578   -2.67753   1.513759 H        1 UNL1     0.2102
@<TRIPOS>BOND
     1     1     2    1
     2     1     6    1
     3     2     3    1
     4     3     4    1
     5     3    29    1
     6     3    33    1
     7     4     5    1
     8     5     6    1
     9     5     7    1
    10     5    35    1
    11     7     8    1
    12     8     9   ar
    13     8    13   ar
    14     9    10   ar
    15     9    36    1
    16    10    11   ar
    17    10    26    1
    18    11    12   ar
    19    11    14    1
    20    12    13   ar
    21    12    17    1
    22    13    37    1
    23    14    15    1
    24    14    25    2
    25    15    16    1
    26    15    38    1
    27    15    39    1
    28    16    17    1
    29    16    18    1
    30    16    40    1
    31    18    19   ar
    32    18    23   ar
    33    19    20   ar
    34    19    41    1
    35    20    21   ar
    36    20    42    1
    37    21    22   ar
    38    21    24    1
    39    22    23   ar
    40    22    43    1
    41    23    44    1
    42    24    45    1
    43    26    46    1
    44    27    47    1
    45    28    48    1
    46    29    49    1
    47    30    50    1
    48     1    31    1
    49     1    27    1
    50     2    32    1
    51     2    28    1
    52     4    34    1
    53     4    30    1
