@<TRIPOS>MOLECULE
*****
 50 53 0 0 0
SMALL
GASTEIGER

@<TRIPOS>ATOM
     1 C         -1.599865   -1.39897   0.504103 C.3        1 UNL1     0.1889
     2 C         -1.09493   0.002875   0.06843 C.3        1 UNL1     0.1342
     3 C         -1.536871   1.156174   0.982244 C.3        1 UNL1     0.1174
     4 C         -2.936899   0.948398   1.565224 C.3        1 UNL1     0.1456
     5 C         -3.137893   -0.471151   2.126336 C.3        1 UNL1     0.2326
     6 O         -2.884368   -1.436632   1.108279 O.3        1 UNL1     -0.3076
     7 O         -2.400394   -0.718645   3.337188 O.3        1 UNL1     -0.4605
     8 C         -3.075032   -0.47121   4.519207 C.ar        1 UNL1     0.1310
     9 C         -3.836614   0.66974   4.79403 C.ar        1 UNL1     0.0226
     10 C         -4.498188   0.820633   6.018552 C.ar        1 UNL1     0.1343
     11 C         -4.433594   -0.177575   6.989761 C.ar        1 UNL1     0.1007
     12 C         -3.642786   -1.302967   6.742982 C.ar        1 UNL1     0.1389
     13 C         -2.975529   -1.453251   5.512692 C.ar        1 UNL1     0.0229
     14 C         -5.18054   -0.107982   8.267017 C.2        1 UNL1     0.1740
     15 C         -5.174213   -1.36135   9.091989 C.3        1 UNL1     0.0520
     16 C         -3.780519   -1.971162   9.031135 C.3        1 UNL1     0.1322
     17 O         -3.421533   -2.295106   7.669791 O.3        1 UNL1     -0.4828
     18 C         -2.722818   -1.16814   9.792151 C.ar        1 UNL1     -0.0067
     19 C         -1.41022   -1.67313   9.893567 C.ar        1 UNL1     -0.0516
     20 C         -0.431054   -0.987384   10.622228 C.ar        1 UNL1     -0.0198
     21 C         -0.753097   0.197932   11.258736 C.ar        1 UNL1     0.1169
     22 C         -2.028114   0.737591   11.149475 C.ar        1 UNL1     -0.0198
     23 C         -3.002523   0.061453   10.405553 C.ar        1 UNL1     -0.0516
     24 O         0.216423   0.818267   11.990594 O.3        1 UNL1     -0.5068
     25 O         -5.836887   0.870442   8.613974 O.2        1 UNL1     -0.2917
     26 O         -5.223612   1.957728   6.224366 O.3        1 UNL1     -0.5058
     27 O         -0.646694   -2.135389   1.253729 O.3        1 UNL1     -0.3648
     28 O         -1.603323   0.281543   -1.249366 O.3        1 UNL1     -0.3841
     29 O         -0.552328   1.41408   1.985386 O.3        1 UNL1     -0.3863
     30 O         -3.919444   1.182873   0.533082 O.3        1 UNL1     -0.3829
     31 H         -1.731149   -1.9832   -0.41324 H        1 UNL1     0.0937
     32 H         0.0   0.0   0.0 H        1 UNL1     0.0671
     33 H         -1.578744   2.069728   0.37283 H        1 UNL1     0.0649
     34 H         -3.124196   1.680672   2.35838 H        1 UNL1     0.0683
     35 H         -4.211073   -0.517708   2.349931 H        1 UNL1     0.1085
     36 H         -3.971768   1.455737   4.059141 H        1 UNL1     0.0691
     37 H         -2.365269   -2.338228   5.345683 H        1 UNL1     0.0691
     38 H         -5.921413   -2.040665   8.668019 H        1 UNL1     0.0385
     39 H         -5.475367   -1.118143   10.116652 H        1 UNL1     0.0385
     40 H         -3.829869   -2.942968   9.540722 H        1 UNL1     0.0789
     41 H         -1.134697   -2.606174   9.410694 H        1 UNL1     0.0623
     42 H         0.57437   -1.393128   10.702898 H        1 UNL1     0.0654
     43 H         -2.286968   1.672811   11.631417 H        1 UNL1     0.0654
     44 H         -3.985217   0.517351   10.332642 H        1 UNL1     0.0623
     45 H         0.563955   0.184553   12.638934 H        1 UNL1     0.2921
     46 H         -4.90854   2.401535   7.027595 H        1 UNL1     0.2922
     47 H         0.182417   -1.641199   1.318635 H        1 UNL1     0.2126
     48 H         -0.842563   0.229236   -1.859481 H        1 UNL1     0.2101
     49 H         -0.681672   0.813718   2.736804 H        1 UNL1     0.2100
     50 H         -3.441743   1.399235   -0.294385 H        1 UNL1     0.2102
@<TRIPOS>BOND
     1     1     2    1
     2     1     6    1
     3     2     3    1
     4     3     4    1
     5     3    29    1
     6     3    33    1
     7     4     5    1
     8     5     6    1
     9     5     7    1
    10     5    35    1
    11     7     8    1
    12     8     9   ar
    13     8    13   ar
    14     9    10   ar
    15     9    36    1
    16    10    11   ar
    17    10    26    1
    18    11    12   ar
    19    11    14    1
    20    12    13   ar
    21    12    17    1
    22    13    37    1
    23    14    15    1
    24    14    25    2
    25    15    16    1
    26    15    38    1
    27    15    39    1
    28    16    17    1
    29    16    18    1
    30    16    40    1
    31    18    19   ar
    32    18    23   ar
    33    19    20   ar
    34    19    41    1
    35    20    21   ar
    36    20    42    1
    37    21    22   ar
    38    21    24    1
    39    22    23   ar
    40    22    43    1
    41    23    44    1
    42    24    45    1
    43    26    46    1
    44    27    47    1
    45    28    48    1
    46    29    49    1
    47    30    50    1
    48     1    31    1
    49     1    27    1
    50     2    32    1
    51     2    28    1
    52     4    34    1
    53     4    30    1
