@<TRIPOS>MOLECULE
*****
 50 53 0 0 0
SMALL
GASTEIGER

@<TRIPOS>ATOM
     1 C         -1.077515   1.69492   0.858495 C.3        1 UNL1     0.1889
     2 C         0.103553   1.090926   0.052139 C.3        1 UNL1     0.1342
     3 C         1.49688   1.436426   0.599619 C.3        1 UNL1     0.1174
     4 C         1.566331   2.842269   1.201199 C.3        1 UNL1     0.1456
     5 C         0.380963   3.143275   2.136433 C.3        1 UNL1     0.2326
     6 O         -0.847953   2.972643   1.433926 O.3        1 UNL1     -0.3076
     7 O         0.429777   2.41447   3.376506 O.3        1 UNL1     -0.4605
     8 C         1.693009   2.133058   3.864951 C.ar        1 UNL1     0.1310
     9 C         1.978379   1.664654   5.151988 C.ar        1 UNL1     0.0226
     10 C         3.293201   1.391897   5.547906 C.ar        1 UNL1     0.1343
     11 C         4.353248   1.558451   4.657737 C.ar        1 UNL1     0.1007
     12 C         4.085183   2.064661   3.383109 C.ar        1 UNL1     0.1389
     13 C         2.763336   2.341349   2.986126 C.ar        1 UNL1     0.0229
     14 C         5.751698   1.206057   4.995835 C.2        1 UNL1     0.1740
     15 C         6.723597   1.237349   3.85304 C.3        1 UNL1     0.0520
     16 C         6.408104   2.447886   2.985271 C.3        1 UNL1     0.1322
     17 O         5.062874   2.36891   2.464513 O.3        1 UNL1     -0.4828
     18 C         6.756093   3.785263   3.643336 C.ar        1 UNL1     -0.0067
     19 C         5.984588   4.926567   3.342635 C.ar        1 UNL1     -0.0516
     20 C         6.304668   6.174651   3.890173 C.ar        1 UNL1     -0.0198
     21 C         7.395725   6.295719   4.732054 C.ar        1 UNL1     0.1169
     22 C         8.154582   5.183767   5.073429 C.ar        1 UNL1     -0.0198
     23 C         7.823656   3.932099   4.540633 C.ar        1 UNL1     -0.0516
     24 O         7.699458   7.534176   5.216173 O.3        1 UNL1     -0.5068
     25 O         6.103773   0.831425   6.111263 O.2        1 UNL1     -0.2917
     26 O         3.504071   0.938531   6.817385 O.3        1 UNL1     -0.5058
     27 O         -1.642255   0.792133   1.795956 O.3        1 UNL1     -0.3648
     28 O         0.037423   1.589999   -1.29666 O.3        1 UNL1     -0.3841
     29 O         1.952416   0.425547   1.501142 O.3        1 UNL1     -0.3863
     30 O         1.573573   3.814639   0.133429 O.3        1 UNL1     -0.3829
     31 H         -1.884685   1.878515   0.140966 H        1 UNL1     0.0937
     32 H         0.0   -0.0   0.0 H        1 UNL1     0.0671
     33 H         2.202646   1.415889   -0.242516 H        1 UNL1     0.0649
     34 H         2.503944   2.966503   1.754234 H        1 UNL1     0.0683
     35 H         0.47924   4.214684   2.351617 H        1 UNL1     0.1085
     36 H         1.193229   1.46155   5.871993 H        1 UNL1     0.0691
     37 H         2.581324   2.735719   1.988711 H        1 UNL1     0.0691
     38 H         6.602981   0.305642   3.290101 H        1 UNL1     0.0385
     39 H         7.743919   1.267306   4.250312 H        1 UNL1     0.0385
     40 H         7.050637   2.38541   2.096582 H        1 UNL1     0.0789
     41 H         5.128731   4.859534   2.677304 H        1 UNL1     0.0623
     42 H         5.709171   7.049536   3.641234 H        1 UNL1     0.0654
     43 H         9.002029   5.264533   5.74367 H        1 UNL1     0.0654
     44 H         8.431863   3.082987   4.837179 H        1 UNL1     0.0623
     45 H         6.970793   7.827568   5.786863 H        1 UNL1     0.2921
     46 H         4.078368   1.560287   7.291742 H        1 UNL1     0.2922
     47 H         -1.072007   0.017682   1.900374 H        1 UNL1     0.2126
     48 H         -0.87898   1.447908   -1.602842 H        1 UNL1     0.2101
     49 H         2.660086   0.779195   2.063219 H        1 UNL1     0.2100
     50 H         2.450537   4.251249   0.129181 H        1 UNL1     0.2102
@<TRIPOS>BOND
     1     1     2    1
     2     1     6    1
     3     2     3    1
     4     3     4    1
     5     3    29    1
     6     3    33    1
     7     4     5    1
     8     5     6    1
     9     5     7    1
    10     5    35    1
    11     7     8    1
    12     8     9   ar
    13     8    13   ar
    14     9    10   ar
    15     9    36    1
    16    10    11   ar
    17    10    26    1
    18    11    12   ar
    19    11    14    1
    20    12    13   ar
    21    12    17    1
    22    13    37    1
    23    14    15    1
    24    14    25    2
    25    15    16    1
    26    15    38    1
    27    15    39    1
    28    16    17    1
    29    16    18    1
    30    16    40    1
    31    18    19   ar
    32    18    23   ar
    33    19    20   ar
    34    19    41    1
    35    20    21   ar
    36    20    42    1
    37    21    22   ar
    38    21    24    1
    39    22    23   ar
    40    22    43    1
    41    23    44    1
    42    24    45    1
    43    26    46    1
    44    27    47    1
    45    28    48    1
    46    29    49    1
    47    30    50    1
    48     1    31    1
    49     1    27    1
    50     2    32    1
    51     2    28    1
    52     4    34    1
    53     4    30    1
