@<TRIPOS>MOLECULE
*****
 50 53 0 0 0
SMALL
GASTEIGER

@<TRIPOS>ATOM
     1 C         0.072882   -1.611534   1.472566 C.3        1 UNL1     0.1889
     2 C         -0.641241   -0.415628   0.787162 C.3        1 UNL1     0.1342
     3 C         -1.059519   0.713737   1.741123 C.3        1 UNL1     0.1174
     4 C         -1.488309   0.199566   3.117671 C.3        1 UNL1     0.1456
     5 C         -0.507278   -0.838918   3.691686 C.3        1 UNL1     0.2326
     6 O         -0.368286   -1.929821   2.784228 O.3        1 UNL1     -0.3076
     7 O         0.753595   -0.274494   4.095353 O.3        1 UNL1     -0.4605
     8 C         1.72206   -0.188476   3.11138 C.ar        1 UNL1     0.1310
     9 C         2.353806   0.988979   2.696893 C.ar        1 UNL1     0.0226
     10 C         3.337709   0.970495   1.701155 C.ar        1 UNL1     0.1343
     11 C         3.731053   -0.230317   1.111943 C.ar        1 UNL1     0.1007
     12 C         3.078452   -1.407257   1.488384 C.ar        1 UNL1     0.1389
     13 C         2.087312   -1.38805   2.487735 C.ar        1 UNL1     0.0229
     14 C         4.823638   -0.318565   0.115638 C.2        1 UNL1     0.1740
     15 C         5.263246   -1.707282   -0.244582 C.3        1 UNL1     0.0520
     16 C         4.027843   -2.590114   -0.355689 C.3        1 UNL1     0.1322
     17 O         3.310048   -2.627692   0.897478 O.3        1 UNL1     -0.4828
     18 C         3.15749   -2.281175   -1.576249 C.ar        1 UNL1     -0.0067
     19 C         1.972766   -3.016459   -1.786011 C.ar        1 UNL1     -0.0516
     20 C         1.178678   -2.791863   -2.916915 C.ar        1 UNL1     -0.0198
     21 C         1.561447   -1.842064   -3.847075 C.ar        1 UNL1     0.1169
     22 C         2.705056   -1.078716   -3.651375 C.ar        1 UNL1     -0.0198
     23 C         3.489538   -1.290256   -2.511246 C.ar        1 UNL1     -0.0516
     24 O         0.783092   -1.67752   -4.954996 O.3        1 UNL1     -0.5068
     25 O         5.403526   0.663293   -0.34062 O.2        1 UNL1     -0.2917
     26 O         3.914373   2.153614   1.341609 O.3        1 UNL1     -0.5058
     27 O         1.488   -1.543035   1.398153 O.3        1 UNL1     -0.3648
     28 O         -1.836705   -0.902729   0.149741 O.3        1 UNL1     -0.3841
     29 O         -0.043744   1.71606   1.816499 O.3        1 UNL1     -0.3863
     30 O         -2.795181   -0.405789   3.011263 O.3        1 UNL1     -0.3829
     31 H         -0.184772   -2.504145   0.892101 H        1 UNL1     0.0937
     32 H         0.0   0.0   0.0 H        1 UNL1     0.0671
     33 H         -1.933303   1.216201   1.303228 H        1 UNL1     0.0649
     34 H         -1.579092   1.037143   3.818117 H        1 UNL1     0.0683
     35 H         -1.022003   -1.226419   4.579819 H        1 UNL1     0.1085
     36 H         2.132509   1.946594   3.155283 H        1 UNL1     0.0691
     37 H         1.593537   -2.317801   2.762038 H        1 UNL1     0.0691
     38 H         5.9305   -2.059792   0.549167 H        1 UNL1     0.0385
     39 H         5.832624   -1.672322   -1.179657 H        1 UNL1     0.0385
     40 H         4.378548   -3.620676   -0.502215 H        1 UNL1     0.0789
     41 H         1.655421   -3.773957   -1.07528 H        1 UNL1     0.0623
     42 H         0.273657   -3.373625   -3.07344 H        1 UNL1     0.0654
     43 H         3.006004   -0.321858   -4.365872 H        1 UNL1     0.0654
     44 H         4.37065   -0.668509   -2.385082 H        1 UNL1     0.0623
     45 H         0.287052   -0.848178   -4.860907 H        1 UNL1     0.2921
     46 H         3.511941   2.472682   0.518411 H        1 UNL1     0.2922
     47 H         1.771001   -0.632501   1.23476 H        1 UNL1     0.2126
     48 H         -2.433886   -1.198141   0.863771 H        1 UNL1     0.2101
     49 H         0.831646   1.297746   1.838838 H        1 UNL1     0.2100
     50 H         -3.443218   0.305949   2.829081 H        1 UNL1     0.2102
@<TRIPOS>BOND
     1     1     2    1
     2     1     6    1
     3     2     3    1
     4     3     4    1
     5     3    29    1
     6     3    33    1
     7     4     5    1
     8     5     6    1
     9     5     7    1
    10     5    35    1
    11     7     8    1
    12     8     9   ar
    13     8    13   ar
    14     9    10   ar
    15     9    36    1
    16    10    11   ar
    17    10    26    1
    18    11    12   ar
    19    11    14    1
    20    12    13   ar
    21    12    17    1
    22    13    37    1
    23    14    15    1
    24    14    25    2
    25    15    16    1
    26    15    38    1
    27    15    39    1
    28    16    17    1
    29    16    18    1
    30    16    40    1
    31    18    19   ar
    32    18    23   ar
    33    19    20   ar
    34    19    41    1
    35    20    21   ar
    36    20    42    1
    37    21    22   ar
    38    21    24    1
    39    22    23   ar
    40    22    43    1
    41    23    44    1
    42    24    45    1
    43    26    46    1
    44    27    47    1
    45    28    48    1
    46    29    49    1
    47    30    50    1
    48     1    31    1
    49     1    27    1
    50     2    32    1
    51     2    28    1
    52     4    34    1
    53     4    30    1
