@<TRIPOS>MOLECULE
*****
 50 53 0 0 0
SMALL
GASTEIGER

@<TRIPOS>ATOM
     1 C         -0.336241   -1.33166   1.69836 C.3        1 UNL1     0.1889
     2 C         -0.464737   -0.97485   0.192998 C.3        1 UNL1     0.1342
     3 C         -1.905114   -0.957891   -0.341316 C.3        1 UNL1     0.1174
     4 C         -2.794251   -2.01679   0.315408 C.3        1 UNL1     0.1456
     5 C         -2.643916   -2.046118   1.847369 C.3        1 UNL1     0.2326
     6 O         -1.279779   -2.268008   2.197744 O.3        1 UNL1     -0.3076
     7 O         -3.21686   -0.899378   2.50162 O.3        1 UNL1     -0.4605
     8 C         -3.728292   -1.116809   3.768383 C.ar        1 UNL1     0.1310
     9 C         -4.547405   -2.188873   4.138561 C.ar        1 UNL1     0.0226
     10 C         -5.001964   -2.331486   5.454973 C.ar        1 UNL1     0.1343
     11 C         -4.628547   -1.417594   6.439454 C.ar        1 UNL1     0.1007
     12 C         -3.844575   -0.320361   6.07305 C.ar        1 UNL1     0.1389
     13 C         -3.389823   -0.175746   4.74877 C.ar        1 UNL1     0.0229
     14 C         -5.010919   -1.56608   7.862794 C.2        1 UNL1     0.1740
     15 C         -4.340784   -0.621686   8.817042 C.3        1 UNL1     0.0520
     16 C         -4.267785   0.751748   8.16412 C.3        1 UNL1     0.1322
     17 O         -3.508143   0.696227   6.936549 O.3        1 UNL1     -0.4828
     18 C         -5.625359   1.447513   8.039109 C.ar        1 UNL1     -0.0067
     19 C         -6.000811   2.016672   6.804885 C.ar        1 UNL1     -0.0516
     20 C         -7.214409   2.701299   6.669136 C.ar        1 UNL1     -0.0198
     21 C         -8.056032   2.829721   7.759551 C.ar        1 UNL1     0.1169
     22 C         -7.729355   2.251341   8.979222 C.ar        1 UNL1     -0.0198
     23 C         -6.524323   1.550801   9.110365 C.ar        1 UNL1     -0.0516
     24 O         -9.211965   3.535815   7.599392 O.3        1 UNL1     -0.5068
     25 O         -5.762076   -2.447109   8.272717 O.2        1 UNL1     -0.2917
     26 O         -5.798951   -3.398752   5.750506 O.3        1 UNL1     -0.5058
     27 O         -0.229109   -0.195681   2.541486 O.3        1 UNL1     -0.3648
     28 O         0.264254   -1.953058   -0.571455 O.3        1 UNL1     -0.3841
     29 O         -2.459733   0.356761   -0.262454 O.3        1 UNL1     -0.3863
     30 O         -2.449141   -3.317095   -0.209754 O.3        1 UNL1     -0.3829
     31 H         0.623202   -1.846916   1.816933 H        1 UNL1     0.0937
     32 H         0.0   0.0   0.0 H        1 UNL1     0.0671
     33 H         -1.867774   -1.194958   -1.413754 H        1 UNL1     0.0649
     34 H         -3.843775   -1.835536   0.058412 H        1 UNL1     0.0683
     35 H         -3.200839   -2.941491   2.150719 H        1 UNL1     0.1085
     36 H         -4.826917   -2.963206   3.432585 H        1 UNL1     0.0691
     37 H         -2.781595   0.687971   4.488879 H        1 UNL1     0.0691
     38 H         -3.339513   -1.014578   9.023487 H        1 UNL1     0.0385
     39 H         -4.901803   -0.603699   9.757633 H        1 UNL1     0.0385
     40 H         -3.672047   1.393962   8.826826 H        1 UNL1     0.0789
     41 H         -5.353467   1.937526   5.936362 H        1 UNL1     0.0623
     42 H         -7.487199   3.146037   5.715299 H        1 UNL1     0.0654
     43 H         -8.388072   2.332943   9.835577 H        1 UNL1     0.0654
     44 H         -6.305994   1.102646   10.074903 H        1 UNL1     0.0623
     45 H         -8.983409   4.445543   7.348647 H        1 UNL1     0.2921
     46 H         -5.397604   -3.913196   6.468615 H        1 UNL1     0.2922
     47 H         0.513612   0.358509   2.26382 H        1 UNL1     0.2126
     48 H         1.199868   -1.878245   -0.301712 H        1 UNL1     0.2101
     49 H         -2.019203   0.939649   -0.90118 H        1 UNL1     0.2100
     50 H         -2.686896   -3.331281   -1.160009 H        1 UNL1     0.2102
@<TRIPOS>BOND
     1     1     2    1
     2     1     6    1
     3     2     3    1
     4     3     4    1
     5     3    29    1
     6     3    33    1
     7     4     5    1
     8     5     6    1
     9     5     7    1
    10     5    35    1
    11     7     8    1
    12     8     9   ar
    13     8    13   ar
    14     9    10   ar
    15     9    36    1
    16    10    11   ar
    17    10    26    1
    18    11    12   ar
    19    11    14    1
    20    12    13   ar
    21    12    17    1
    22    13    37    1
    23    14    15    1
    24    14    25    2
    25    15    16    1
    26    15    38    1
    27    15    39    1
    28    16    17    1
    29    16    18    1
    30    16    40    1
    31    18    19   ar
    32    18    23   ar
    33    19    20   ar
    34    19    41    1
    35    20    21   ar
    36    20    42    1
    37    21    22   ar
    38    21    24    1
    39    22    23   ar
    40    22    43    1
    41    23    44    1
    42    24    45    1
    43    26    46    1
    44    27    47    1
    45    28    48    1
    46    29    49    1
    47    30    50    1
    48     1    31    1
    49     1    27    1
    50     2    32    1
    51     2    28    1
    52     4    34    1
    53     4    30    1
