@<TRIPOS>MOLECULE
*****
 50 53 0 0 0
SMALL
GASTEIGER

@<TRIPOS>ATOM
     1 C         -0.373137   -1.395831   1.638056 C.3        1 UNL1     0.1889
     2 C         -0.488354   -0.970957   0.149383 C.3        1 UNL1     0.1342
     3 C         -1.926221   -0.896438   -0.38676 C.3        1 UNL1     0.1174
     4 C         -2.842319   -1.961376   0.221344 C.3        1 UNL1     0.1456
     5 C         -2.697581   -2.060848   1.750893 C.3        1 UNL1     0.2326
     6 O         -1.340212   -2.330232   2.094188 O.3        1 UNL1     -0.3076
     7 O         -3.245217   -0.930294   2.45322 O.3        1 UNL1     -0.4605
     8 C         -3.775909   -1.192353   3.703507 C.ar        1 UNL1     0.1310
     9 C         -4.625709   -2.258942   4.015802 C.ar        1 UNL1     0.0226
     10 C         -5.098219   -2.450014   5.319692 C.ar        1 UNL1     0.1343
     11 C         -4.712885   -1.592012   6.348862 C.ar        1 UNL1     0.1007
     12 C         -3.897623   -0.499563   6.041149 C.ar        1 UNL1     0.1389
     13 C         -3.424782   -0.306137   4.729495 C.ar        1 UNL1     0.0229
     14 C         -5.114565   -1.795692   7.760004 C.2        1 UNL1     0.1740
     15 C         -4.431524   -0.913435   8.763312 C.3        1 UNL1     0.0520
     16 C         -4.31687   0.48614   8.175094 C.3        1 UNL1     0.1322
     17 O         -3.545345   0.467479   6.953836 O.3        1 UNL1     -0.4828
     18 C         -5.655092   1.221395   8.068849 C.ar        1 UNL1     -0.0067
     19 C         -5.902461   2.332989   8.900341 C.ar        1 UNL1     -0.0516
     20 C         -7.133408   2.998779   8.862178 C.ar        1 UNL1     -0.0198
     21 C         -8.125506   2.559184   8.004084 C.ar        1 UNL1     0.1169
     22 C         -7.900024   1.488172   7.149141 C.ar        1 UNL1     -0.0198
     23 C         -6.662655   0.833678   7.173926 C.ar        1 UNL1     -0.0516
     24 O         -9.324633   3.208942   8.021709 O.3        1 UNL1     -0.5068
     25 O         -5.892079   -2.675067   8.121469 O.2        1 UNL1     -0.2917
     26 O         -5.924956   -3.508959   5.557864 O.3        1 UNL1     -0.5058
     27 O         -0.241747   -0.300455   2.530063 O.3        1 UNL1     -0.3648
     28 O         0.219634   -1.932117   -0.655371 O.3        1 UNL1     -0.3841
     29 O         -2.449727   0.426397   -0.251927 O.3        1 UNL1     -0.3863
     30 O         -2.526505   -3.245484   -0.35919 O.3        1 UNL1     -0.3829
     31 H         0.573425   -1.938491   1.736135 H        1 UNL1     0.0937
     32 H         0.0   0.0   0.0 H        1 UNL1     0.0671
     33 H         -1.891118   -1.087484   -1.46842 H        1 UNL1     0.0649
     34 H         -3.886425   -1.744141   -0.029759 H        1 UNL1     0.0683
     35 H         -3.276558   -2.955024   2.013786 H        1 UNL1     0.1085
     36 H         -4.916748   -2.992732   3.272183 H        1 UNL1     0.0691
     37 H         -2.792235   0.552736   4.515685 H        1 UNL1     0.0691
     38 H         -3.442771   -1.34085   8.961329 H        1 UNL1     0.0385
     39 H         -5.002273   -0.924195   9.698143 H        1 UNL1     0.0385
     40 H         -3.712562   1.081885   8.872532 H        1 UNL1     0.0789
     41 H         -5.143239   2.691884   9.589128 H        1 UNL1     0.0623
     42 H         -7.316235   3.847324   9.516821 H        1 UNL1     0.0654
     43 H         -8.664697   1.145059   6.462512 H        1 UNL1     0.0654
     44 H         -6.517353   0.007354   6.484782 H        1 UNL1     0.0623
     45 H         -9.350156   3.825967   7.272479 H        1 UNL1     0.2921
     46 H         -5.713025   -3.897002   6.42153 H        1 UNL1     0.2922
     47 H         0.505179   0.256165   2.269036 H        1 UNL1     0.2126
     48 H         1.171675   -1.780349   -0.499431 H        1 UNL1     0.2101
     49 H         -2.999151   0.484146   0.545941 H        1 UNL1     0.2100
     50 H         -2.782487   -3.220183   -1.304465 H        1 UNL1     0.2102
@<TRIPOS>BOND
     1     1     2    1
     2     1     6    1
     3     2     3    1
     4     3     4    1
     5     3    29    1
     6     3    33    1
     7     4     5    1
     8     5     6    1
     9     5     7    1
    10     5    35    1
    11     7     8    1
    12     8     9   ar
    13     8    13   ar
    14     9    10   ar
    15     9    36    1
    16    10    11   ar
    17    10    26    1
    18    11    12   ar
    19    11    14    1
    20    12    13   ar
    21    12    17    1
    22    13    37    1
    23    14    15    1
    24    14    25    2
    25    15    16    1
    26    15    38    1
    27    15    39    1
    28    16    17    1
    29    16    18    1
    30    16    40    1
    31    18    19   ar
    32    18    23   ar
    33    19    20   ar
    34    19    41    1
    35    20    21   ar
    36    20    42    1
    37    21    22   ar
    38    21    24    1
    39    22    23   ar
    40    22    43    1
    41    23    44    1
    42    24    45    1
    43    26    46    1
    44    27    47    1
    45    28    48    1
    46    29    49    1
    47    30    50    1
    48     1    31    1
    49     1    27    1
    50     2    32    1
    51     2    28    1
    52     4    34    1
    53     4    30    1
