@<TRIPOS>MOLECULE
*****
 50 53 0 0 0
SMALL
GASTEIGER

@<TRIPOS>ATOM
     1 C         -0.327339   -1.367097   1.671736 C.3        1 UNL1     0.1889
     2 C         -0.462603   -0.979315   0.174649 C.3        1 UNL1     0.1342
     3 C         -1.90522   -0.953354   -0.353222 C.3        1 UNL1     0.1174
     4 C         -2.790169   -2.026934   0.285064 C.3        1 UNL1     0.1456
     5 C         -2.6334   -2.087824   1.815449 C.3        1 UNL1     0.2326
     6 O         -1.267512   -2.314966   2.155486 O.3        1 UNL1     -0.3076
     7 O         -3.205164   -0.955735   2.495729 O.3        1 UNL1     -0.4605
     8 C         -3.721211   -1.202532   3.755218 C.ar        1 UNL1     0.1310
     9 C         -4.544519   -2.280928   4.096578 C.ar        1 UNL1     0.0226
     10 C         -5.003638   -2.454307   5.407704 C.ar        1 UNL1     0.1343
     11 C         -4.630753   -1.565802   6.415354 C.ar        1 UNL1     0.1007
     12 C         -3.842527   -0.462235   6.078274 C.ar        1 UNL1     0.1389
     13 C         -3.383184   -0.286664   4.759331 C.ar        1 UNL1     0.0229
     14 C         -5.018041   -1.747872   7.833456 C.2        1 UNL1     0.1740
     15 C         -4.348258   -0.828999   8.812543 C.3        1 UNL1     0.0520
     16 C         -4.269312   0.559744   8.193578 C.3        1 UNL1     0.1322
     17 O         -3.505953   0.531994   6.967371 O.3        1 UNL1     -0.4828
     18 C         -5.624511   1.262292   8.081395 C.ar        1 UNL1     -0.0067
     19 C         -5.698145   2.531746   7.472069 C.ar        1 UNL1     -0.0516
     20 C         -6.91351   3.222396   7.395568 C.ar        1 UNL1     -0.0198
     21 C         -8.058342   2.658847   7.929984 C.ar        1 UNL1     0.1169
     22 C         -8.024148   1.395774   8.506454 C.ar        1 UNL1     -0.0198
     23 C         -6.812508   0.696943   8.566614 C.ar        1 UNL1     -0.0516
     24 O         -9.21618   3.377381   7.870661 O.3        1 UNL1     -0.5068
     25 O         -5.772978   -2.636458   8.219421 O.2        1 UNL1     -0.2917
     26 O         -5.80457   -3.526148   5.674626 O.3        1 UNL1     -0.5058
     27 O         -0.218232   -0.248702   2.537805 O.3        1 UNL1     -0.3648
     28 O         0.264518   -1.940397   -0.612957 O.3        1 UNL1     -0.3841
     29 O         -2.461289   0.358577   -0.244794 O.3        1 UNL1     -0.3863
     30 O         -2.445489   -3.315563   -0.268399 O.3        1 UNL1     -0.3829
     31 H         0.633289   -1.883315   1.775611 H        1 UNL1     0.0937
     32 H         0.0   0.0   0.0 H        1 UNL1     0.0671
     33 H         -1.872035   -1.168064   -1.430496 H        1 UNL1     0.0649
     34 H         -3.841002   -1.841902   0.036238 H        1 UNL1     0.0683
     35 H         -3.187836   -2.990102   2.102457 H        1 UNL1     0.1085
     36 H         -4.823986   -3.036986   3.371046 H        1 UNL1     0.0691
     37 H         -2.771697   0.581369   4.522487 H        1 UNL1     0.0691
     38 H         -3.34876   -1.229719   9.012429 H        1 UNL1     0.0385
     39 H         -4.912195   -0.832344   9.751555 H        1 UNL1     0.0385
     40 H         -3.673859   1.183859   8.873605 H        1 UNL1     0.0789
     41 H         -4.811946   2.999587   7.053229 H        1 UNL1     0.0623
     42 H         -6.955065   4.205808   6.933847 H        1 UNL1     0.0654
     43 H         -8.917674   0.938666   8.914589 H        1 UNL1     0.0654
     44 H         -6.824517   -0.292054   9.014481 H        1 UNL1     0.0623
     45 H         -9.097439   4.193239   8.38349 H        1 UNL1     0.2921
     46 H         -5.418192   -4.046958   6.396347 H        1 UNL1     0.2922
     47 H         0.51137   0.321572   2.257934 H        1 UNL1     0.2126
     48 H         1.209527   -1.820996   -0.397474 H        1 UNL1     0.2101
     49 H         -2.030211   0.953188   -0.879148 H        1 UNL1     0.2100
     50 H         -2.707931   -3.318289   -1.212237 H        1 UNL1     0.2102
@<TRIPOS>BOND
     1     1     2    1
     2     1     6    1
     3     2     3    1
     4     3     4    1
     5     3    29    1
     6     3    33    1
     7     4     5    1
     8     5     6    1
     9     5     7    1
    10     5    35    1
    11     7     8    1
    12     8     9   ar
    13     8    13   ar
    14     9    10   ar
    15     9    36    1
    16    10    11   ar
    17    10    26    1
    18    11    12   ar
    19    11    14    1
    20    12    13   ar
    21    12    17    1
    22    13    37    1
    23    14    15    1
    24    14    25    2
    25    15    16    1
    26    15    38    1
    27    15    39    1
    28    16    17    1
    29    16    18    1
    30    16    40    1
    31    18    19   ar
    32    18    23   ar
    33    19    20   ar
    34    19    41    1
    35    20    21   ar
    36    20    42    1
    37    21    22   ar
    38    21    24    1
    39    22    23   ar
    40    22    43    1
    41    23    44    1
    42    24    45    1
    43    26    46    1
    44    27    47    1
    45    28    48    1
    46    29    49    1
    47    30    50    1
    48     1    31    1
    49     1    27    1
    50     2    32    1
    51     2    28    1
    52     4    34    1
    53     4    30    1
