@<TRIPOS>MOLECULE
*****
 50 53 0 0 0
SMALL
GASTEIGER

@<TRIPOS>ATOM
     1 C         0.055167   2.125374   -0.500545 C.3        1 UNL1     0.1889
     2 C         0.545969   0.898298   0.313911 C.3        1 UNL1     0.1342
     3 C         0.425947   1.050634   1.838002 C.3        1 UNL1     0.1174
     4 C         0.673145   2.484844   2.3124 C.3        1 UNL1     0.1456
     5 C         -0.087029   3.524737   1.46912 C.3        1 UNL1     0.2326
     6 O         0.274496   3.395174   0.096028 O.3        1 UNL1     -0.3076
     7 O         -1.510045   3.507157   1.683681 O.3        1 UNL1     -0.4605
     8 C         -2.278274   3.071081   0.619167 C.ar        1 UNL1     0.1310
     9 C         -1.780506   2.613794   -0.605747 C.ar        1 UNL1     0.0226
     10 C         -2.641744   2.175845   -1.618847 C.ar        1 UNL1     0.1343
     11 C         -4.022013   2.162186   -1.422605 C.ar        1 UNL1     0.1007
     12 C         -4.533   2.654934   -0.218913 C.ar        1 UNL1     0.1389
     13 C         -3.666948   3.09771   0.798601 C.ar        1 UNL1     0.0229
     14 C         -4.972982   1.631777   -2.426835 C.2        1 UNL1     0.1740
     15 C         -6.392916   1.487458   -1.963683 C.3        1 UNL1     0.0520
     16 C         -6.747158   2.698351   -1.111503 C.3        1 UNL1     0.1322
     17 O         -5.877688   2.787948   0.038742 O.3        1 UNL1     -0.4828
     18 C         -6.877859   3.997221   -1.910613 C.ar        1 UNL1     -0.0067
     19 C         -7.953793   4.152547   -2.808641 C.ar        1 UNL1     -0.0516
     20 C         -8.076547   5.307976   -3.589587 C.ar        1 UNL1     -0.0198
     21 C         -7.128048   6.309835   -3.487333 C.ar        1 UNL1     0.1169
     22 C         -6.075625   6.200559   -2.58772 C.ar        1 UNL1     -0.0198
     23 C         -5.962812   5.053306   -1.793277 C.ar        1 UNL1     -0.0516
     24 O         -7.259753   7.403823   -4.291227 O.3        1 UNL1     -0.5068
     25 O         -4.633958   1.251951   -3.544547 O.2        1 UNL1     -0.2917
     26 O         -2.092567   1.743134   -2.790492 O.3        1 UNL1     -0.5058
     27 O         -1.274855   1.992899   -0.976233 O.3        1 UNL1     -0.3648
     28 O         1.936676   0.678179   0.013597 O.3        1 UNL1     -0.3841
     29 O         -0.816151   0.519771   2.304383 O.3        1 UNL1     -0.3863
     30 O         2.08673   2.771229   2.238583 O.3        1 UNL1     -0.3829
     31 H         0.664573   2.161128   -1.410174 H        1 UNL1     0.0937
     32 H         0.0   0.0   0.0 H        1 UNL1     0.0671
     33 H         1.202441   0.424879   2.299744 H        1 UNL1     0.0649
     34 H         0.379831   2.587012   3.36308 H        1 UNL1     0.0683
     35 H         0.310961   4.487206   1.814283 H        1 UNL1     0.1085
     36 H         -0.71552   2.54715   -0.799359 H        1 UNL1     0.0691
     37 H         -4.089903   3.47772   1.726067 H        1 UNL1     0.0691
     38 H         -6.45901   0.561987   -1.381737 H        1 UNL1     0.0385
     39 H         -7.047098   1.389946   -2.83679 H        1 UNL1     0.0385
     40 H         -7.74426   2.515889   -0.688403 H        1 UNL1     0.0789
     41 H         -8.706413   3.376587   -2.914001 H        1 UNL1     0.0623
     42 H         -8.904183   5.410738   -4.287062 H        1 UNL1     0.0654
     43 H         -5.335594   6.985711   -2.488724 H        1 UNL1     0.0654
     44 H         -5.133925   5.006094   -1.09359 H        1 UNL1     0.0623
     45 H         -7.40975   7.099618   -5.200995 H        1 UNL1     0.2921
     46 H         -2.763499   1.268852   -3.306552 H        1 UNL1     0.2922
     47 H         -1.900886   2.321402   -0.315907 H        1 UNL1     0.2126
     48 H         2.037265   0.79934   -0.950215 H        1 UNL1     0.2101
     49 H         -1.542962   0.844179   1.749137 H        1 UNL1     0.2100
     50 H         2.539623   2.2317   2.919398 H        1 UNL1     0.2102
@<TRIPOS>BOND
     1     1     2    1
     2     1     6    1
     3     2     3    1
     4     3     4    1
     5     3    29    1
     6     3    33    1
     7     4     5    1
     8     5     6    1
     9     5     7    1
    10     5    35    1
    11     7     8    1
    12     8     9   ar
    13     8    13   ar
    14     9    10   ar
    15     9    36    1
    16    10    11   ar
    17    10    26    1
    18    11    12   ar
    19    11    14    1
    20    12    13   ar
    21    12    17    1
    22    13    37    1
    23    14    15    1
    24    14    25    2
    25    15    16    1
    26    15    38    1
    27    15    39    1
    28    16    17    1
    29    16    18    1
    30    16    40    1
    31    18    19   ar
    32    18    23   ar
    33    19    20   ar
    34    19    41    1
    35    20    21   ar
    36    20    42    1
    37    21    22   ar
    38    21    24    1
    39    22    23   ar
    40    22    43    1
    41    23    44    1
    42    24    45    1
    43    26    46    1
    44    27    47    1
    45    28    48    1
    46    29    49    1
    47    30    50    1
    48     1    31    1
    49     1    27    1
    50     2    32    1
    51     2    28    1
    52     4    34    1
    53     4    30    1
