@<TRIPOS>MOLECULE
*****
 50 53 0 0 0
SMALL
GASTEIGER

@<TRIPOS>ATOM
     1 C         0.403269   -0.178151   -2.139262 C.3        1 UNL1     0.1889
     2 C         0.567127   -0.656501   -0.671518 C.3        1 UNL1     0.1342
     3 C         2.021226   -0.738202   -0.182249 C.3        1 UNL1     0.1174
     4 C         2.994797   -1.165698   -1.283396 C.3        1 UNL1     0.1456
     5 C         2.76875   -0.401208   -2.600522 C.3        1 UNL1     0.2326
     6 O         1.424396   -0.578777   -3.041034 O.3        1 UNL1     -0.3076
     7 O         3.165356   0.980792   -2.536481 O.3        1 UNL1     -0.4605
     8 C         3.307365   1.512535   -1.267382 C.ar        1 UNL1     0.1310
     9 C         3.828906   0.836388   -0.159176 C.ar        1 UNL1     0.0226
     10 C         3.948248   1.468722   1.084131 C.ar        1 UNL1     0.1343
     11 C         3.57066   2.801323   1.243644 C.ar        1 UNL1     0.1007
     12 C         3.010354   3.474384   0.154685 C.ar        1 UNL1     0.1389
     13 C         2.888011   2.837538   -1.094671 C.ar        1 UNL1     0.0229
     14 C         3.752787   3.543582   2.512515 C.2        1 UNL1     0.1740
     15 C         3.501625   5.021253   2.44212 C.3        1 UNL1     0.0520
     16 C         2.283198   5.261436   1.561379 C.3        1 UNL1     0.1322
     17 O         2.505896   4.752045   0.227964 O.3        1 UNL1     -0.4828
     18 C         0.9648   4.815975   2.198651 C.ar        1 UNL1     -0.0067
     19 C         0.973208   3.780177   3.155346 C.ar        1 UNL1     -0.0516
     20 C         -0.219807   3.31649   3.722507 C.ar        1 UNL1     -0.0198
     21 C         -1.425675   3.874085   3.336762 C.ar        1 UNL1     0.1169
     22 C         -1.463469   4.918245   2.421809 C.ar        1 UNL1     -0.0198
     23 C         -0.269042   5.394636   1.868228 C.ar        1 UNL1     -0.0516
     24 O         -2.570012   3.371001   3.882472 O.3        1 UNL1     -0.5068
     25 O         4.159502   3.023028   3.547934 O.2        1 UNL1     -0.2917
     26 O         4.463811   0.75326   2.125233 O.3        1 UNL1     -0.5058
     27 O         0.116982   1.206651   -2.253939 O.3        1 UNL1     -0.3648
     28 O         0.001458   -1.975336   -0.555764 O.3        1 UNL1     -0.3841
     29 O         2.409832   0.478718   0.458238 O.3        1 UNL1     -0.3863
     30 O         2.835644   -2.579056   -1.533949 O.3        1 UNL1     -0.3829
     31 H         -0.492612   -0.672065   -2.531084 H        1 UNL1     0.0937
     32 H         0.0   0.0   0.0 H        1 UNL1     0.0671
     33 H         2.068895   -1.50805   0.600555 H        1 UNL1     0.0649
     34 H         4.02718   -1.0136   -0.949552 H        1 UNL1     0.0683
     35 H         3.411976   -0.920838   -3.321718 H        1 UNL1     0.1085
     36 H         4.191954   -0.182926   -0.232087 H        1 UNL1     0.0691
     37 H         2.447485   3.38305   -1.926443 H        1 UNL1     0.0691
     38 H         4.395455   5.489176   2.015925 H        1 UNL1     0.0385
     39 H         3.362463   5.410406   3.456503 H        1 UNL1     0.0385
     40 H         2.189142   6.34768   1.428158 H        1 UNL1     0.0789
     41 H         1.905907   3.319817   3.468065 H        1 UNL1     0.0623
     42 H         -0.201221   2.509109   4.450382 H        1 UNL1     0.0654
     43 H         -2.401027   5.372294   2.123922 H        1 UNL1     0.0654
     44 H         -0.334918   6.218712   1.164378 H        1 UNL1     0.0623
     45 H         -2.917465   4.018366   4.517226 H        1 UNL1     0.2921
     46 H         5.432673   0.799543   2.10123 H        1 UNL1     0.2922
     47 H         -0.811487   1.338028   -2.491732 H        1 UNL1     0.2126
     48 H         -0.597557   -2.090665   -1.318399 H        1 UNL1     0.2101
     49 H         2.033344   0.516122   1.351911 H        1 UNL1     0.2100
     50 H         3.054001   -3.058179   -0.70783 H        1 UNL1     0.2102
@<TRIPOS>BOND
     1     1     2    1
     2     1     6    1
     3     2     3    1
     4     3     4    1
     5     3    29    1
     6     3    33    1
     7     4     5    1
     8     5     6    1
     9     5     7    1
    10     5    35    1
    11     7     8    1
    12     8     9   ar
    13     8    13   ar
    14     9    10   ar
    15     9    36    1
    16    10    11   ar
    17    10    26    1
    18    11    12   ar
    19    11    14    1
    20    12    13   ar
    21    12    17    1
    22    13    37    1
    23    14    15    1
    24    14    25    2
    25    15    16    1
    26    15    38    1
    27    15    39    1
    28    16    17    1
    29    16    18    1
    30    16    40    1
    31    18    19   ar
    32    18    23   ar
    33    19    20   ar
    34    19    41    1
    35    20    21   ar
    36    20    42    1
    37    21    22   ar
    38    21    24    1
    39    22    23   ar
    40    22    43    1
    41    23    44    1
    42    24    45    1
    43    26    46    1
    44    27    47    1
    45    28    48    1
    46    29    49    1
    47    30    50    1
    48     1    31    1
    49     1    27    1
    50     2    32    1
    51     2    28    1
    52     4    34    1
    53     4    30    1
