@<TRIPOS>MOLECULE
*****
 50 53 0 0 0
SMALL
GASTEIGER

@<TRIPOS>ATOM
     1 C         0.697838   -1.440266   1.486426 C.3        1 UNL1     0.1889
     2 C         -0.427137   -0.774395   0.649175 C.3        1 UNL1     0.1342
     3 C         -1.566028   -0.16113   1.47821 C.3        1 UNL1     0.1174
     4 C         -1.870527   -0.957956   2.74922 C.3        1 UNL1     0.1456
     5 C         -0.597425   -1.335545   3.528323 C.3        1 UNL1     0.2326
     6 O         0.285422   -2.075111   2.687791 O.3        1 UNL1     -0.3076
     7 O         0.037477   -0.213211   4.16753 O.3        1 UNL1     -0.4605
     8 C         0.692671   -0.483107   5.355556 C.ar        1 UNL1     0.1310
     9 C         0.090944   -0.973242   6.519598 C.ar        1 UNL1     0.0226
     10 C         0.84505   -1.231679   7.67044 C.ar        1 UNL1     0.1343
     11 C         2.224373   -1.028562   7.677606 C.ar        1 UNL1     0.1007
     12 C         2.830277   -0.500599   6.534401 C.ar        1 UNL1     0.1389
     13 C         2.071398   -0.238328   5.378223 C.ar        1 UNL1     0.0229
     14 C         3.081735   -1.363977   8.838029 C.2        1 UNL1     0.1740
     15 C         4.560678   -1.292323   8.594837 C.3        1 UNL1     0.0520
     16 C         4.848821   -0.069561   7.73473 C.3        1 UNL1     0.1322
     17 O         4.161517   -0.160651   6.467297 O.3        1 UNL1     -0.4828
     18 C         4.653517   1.259585   8.46818 C.ar        1 UNL1     -0.0067
     19 C         4.32   1.252081   9.838189 C.ar        1 UNL1     -0.0516
     20 C         4.087956   2.448279   10.527557 C.ar        1 UNL1     -0.0198
     21 C         4.178899   3.655427   9.857966 C.ar        1 UNL1     0.1169
     22 C         4.538228   3.697016   8.517074 C.ar        1 UNL1     -0.0198
     23 C         4.788383   2.501958   7.832008 C.ar        1 UNL1     -0.0516
     24 O         3.909   4.79761   10.552928 O.3        1 UNL1     -0.5068
     25 O         2.639303   -1.755664   9.914747 O.2        1 UNL1     -0.2917
     26 O         0.197455   -1.707689   8.772991 O.3        1 UNL1     -0.5058
     27 O         1.819498   -0.597635   1.697702 O.3        1 UNL1     -0.3648
     28 O         -1.010753   -1.773777   -0.207173 O.3        1 UNL1     -0.3841
     29 O         -1.316055   1.221596   1.738433 O.3        1 UNL1     -0.3863
     30 O         -2.572577   -2.168588   2.392589 O.3        1 UNL1     -0.3829
     31 H         1.090522   -2.265557   0.882462 H        1 UNL1     0.0937
     32 H         0.0   0.0   0.0 H        1 UNL1     0.0671
     33 H         -2.477017   -0.182367   0.863907 H        1 UNL1     0.0649
     34 H         -2.53611   -0.381727   3.401418 H        1 UNL1     0.0683
     35 H         -0.955662   -2.026875   4.301375 H        1 UNL1     0.1085
     36 H         -0.96779   -1.204661   6.560193 H        1 UNL1     0.0691
     37 H         2.566739   0.173539   4.501584 H        1 UNL1     0.0691
     38 H         4.857169   -2.214042   8.082925 H        1 UNL1     0.0385
     39 H         5.081291   -1.253215   9.557755 H        1 UNL1     0.0385
     40 H         5.914834   -0.102553   7.471962 H        1 UNL1     0.0789
     41 H         4.23344   0.317157   10.384152 H        1 UNL1     0.0623
     42 H         3.819838   2.428713   11.581 H        1 UNL1     0.0654
     43 H         4.62702   4.637665   7.986786 H        1 UNL1     0.0654
     44 H         5.077163   2.572329   6.787739 H        1 UNL1     0.0623
     45 H         2.986204   4.763276   10.852902 H        1 UNL1     0.2921
     46 H         0.763563   -2.350945   9.228134 H        1 UNL1     0.2922
     47 H         2.581731   -1.12024   1.983612 H        1 UNL1     0.2126
     48 H         -0.271333   -2.302124   -0.564718 H        1 UNL1     0.2101
     49 H         -0.935729   1.327053   2.625013 H        1 UNL1     0.2100
     50 H         -3.455132   -1.915752   2.050707 H        1 UNL1     0.2102
@<TRIPOS>BOND
     1     1     2    1
     2     1     6    1
     3     2     3    1
     4     3     4    1
     5     3    29    1
     6     3    33    1
     7     4     5    1
     8     5     6    1
     9     5     7    1
    10     5    35    1
    11     7     8    1
    12     8     9   ar
    13     8    13   ar
    14     9    10   ar
    15     9    36    1
    16    10    11   ar
    17    10    26    1
    18    11    12   ar
    19    11    14    1
    20    12    13   ar
    21    12    17    1
    22    13    37    1
    23    14    15    1
    24    14    25    2
    25    15    16    1
    26    15    38    1
    27    15    39    1
    28    16    17    1
    29    16    18    1
    30    16    40    1
    31    18    19   ar
    32    18    23   ar
    33    19    20   ar
    34    19    41    1
    35    20    21   ar
    36    20    42    1
    37    21    22   ar
    38    21    24    1
    39    22    23   ar
    40    22    43    1
    41    23    44    1
    42    24    45    1
    43    26    46    1
    44    27    47    1
    45    28    48    1
    46    29    49    1
    47    30    50    1
    48     1    31    1
    49     1    27    1
    50     2    32    1
    51     2    28    1
    52     4    34    1
    53     4    30    1
