@<TRIPOS>MOLECULE
*****
 50 53 0 0 0
SMALL
GASTEIGER

@<TRIPOS>ATOM
     1 C         -1.574923   -0.613136   1.38365 C.3        1 UNL1     0.1889
     2 C         -0.666284   0.46634   0.736312 C.3        1 UNL1     0.1342
     3 C         0.176952   1.276382   1.732931 C.3        1 UNL1     0.1174
     4 C         -0.544979   1.520195   3.060518 C.3        1 UNL1     0.1456
     5 C         -1.205053   0.245125   3.616272 C.3        1 UNL1     0.2326
     6 O         -2.114173   -0.289371   2.656748 O.3        1 UNL1     -0.3076
     7 O         -0.259277   -0.725134   4.101478 O.3        1 UNL1     -0.4605
     8 C         1.05407   -0.540807   3.708198 C.ar        1 UNL1     0.1310
     9 C         1.53617   0.552338   2.980246 C.ar        1 UNL1     0.0226
     10 C         2.891046   0.656943   2.643687 C.ar        1 UNL1     0.1343
     11 C         3.801794   -0.318257   3.047868 C.ar        1 UNL1     0.1007
     12 C         3.32538   -1.434953   3.739824 C.ar        1 UNL1     0.1389
     13 C         1.962571   -1.541205   4.075823 C.ar        1 UNL1     0.0229
     14 C         5.257269   -0.216236   2.792254 C.2        1 UNL1     0.1740
     15 C         6.111591   -1.235126   3.487628 C.3        1 UNL1     0.0520
     16 C         5.398558   -2.579242   3.433827 C.3        1 UNL1     0.1322
     17 O         4.114557   -2.505268   4.091808 O.3        1 UNL1     -0.4828
     18 C         5.359987   -3.200751   2.035627 C.ar        1 UNL1     -0.0067
     19 C         6.034668   -2.56199   0.974966 C.ar        1 UNL1     -0.0516
     20 C         5.98027   -3.077998   -0.325318 C.ar        1 UNL1     -0.0198
     21 C         5.25018   -4.225422   -0.57872 C.ar        1 UNL1     0.1169
     22 C         4.602665   -4.895566   0.451071 C.ar        1 UNL1     -0.0198
     23 C         4.672119   -4.390018   1.754779 C.ar        1 UNL1     -0.0516
     24 O         5.188967   -4.67727   -1.864212 O.3        1 UNL1     -0.5068
     25 O         5.76529   0.681139   2.125082 O.2        1 UNL1     -0.2917
     26 O         3.296763   1.747618   1.931363 O.3        1 UNL1     -0.5058
     27 O         -1.005934   -1.912705   1.370982 O.3        1 UNL1     -0.3648
     28 O         -1.501406   1.398567   0.024814 O.3        1 UNL1     -0.3841
     29 O         1.466322   0.684625   1.904635 O.3        1 UNL1     -0.3863
     30 O         -1.564769   2.524466   2.867748 O.3        1 UNL1     -0.3829
     31 H         -2.46072   -0.700364   0.745031 H        1 UNL1     0.0937
     32 H         0.0   0.0   0.0 H        1 UNL1     0.0671
     33 H         0.365796   2.263318   1.287941 H        1 UNL1     0.0649
     34 H         0.158414   1.915751   3.801581 H        1 UNL1     0.0683
     35 H         -1.807018   0.605112   4.460029 H        1 UNL1     0.1085
     36 H         0.888982   1.370945   2.685032 H        1 UNL1     0.0691
     37 H         1.616707   -2.421108   4.614007 H        1 UNL1     0.0691
     38 H         6.2488   -0.901945   4.521887 H        1 UNL1     0.0385
     39 H         7.09466   -1.268345   3.005703 H        1 UNL1     0.0385
     40 H         5.981422   -3.279652   4.04719 H        1 UNL1     0.0789
     41 H         6.606996   -1.654932   1.146249 H        1 UNL1     0.0623
     42 H         6.494987   -2.569685   -1.13692 H        1 UNL1     0.0654
     43 H         4.040557   -5.803227   0.266421 H        1 UNL1     0.0654
     44 H         4.162979   -4.945076   2.536784 H        1 UNL1     0.0623
     45 H         5.667912   -4.052157   -2.432158 H        1 UNL1     0.2921
     46 H         4.253483   1.696377   1.778153 H        1 UNL1     0.2922
     47 H         -1.215561   -2.361901   0.540235 H        1 UNL1     0.2126
     48 H         -0.922911   2.132698   -0.258255 H        1 UNL1     0.2101
     49 H         1.394614   -0.107021   2.461365 H        1 UNL1     0.2100
     50 H         -1.211767   3.19794   2.250063 H        1 UNL1     0.2102
@<TRIPOS>BOND
     1     1     2    1
     2     1     6    1
     3     2     3    1
     4     3     4    1
     5     3    29    1
     6     3    33    1
     7     4     5    1
     8     5     6    1
     9     5     7    1
    10     5    35    1
    11     7     8    1
    12     8     9   ar
    13     8    13   ar
    14     9    10   ar
    15     9    36    1
    16    10    11   ar
    17    10    26    1
    18    11    12   ar
    19    11    14    1
    20    12    13   ar
    21    12    17    1
    22    13    37    1
    23    14    15    1
    24    14    25    2
    25    15    16    1
    26    15    38    1
    27    15    39    1
    28    16    17    1
    29    16    18    1
    30    16    40    1
    31    18    19   ar
    32    18    23   ar
    33    19    20   ar
    34    19    41    1
    35    20    21   ar
    36    20    42    1
    37    21    22   ar
    38    21    24    1
    39    22    23   ar
    40    22    43    1
    41    23    44    1
    42    24    45    1
    43    26    46    1
    44    27    47    1
    45    28    48    1
    46    29    49    1
    47    30    50    1
    48     1    31    1
    49     1    27    1
    50     2    32    1
    51     2    28    1
    52     4    34    1
    53     4    30    1
