@<TRIPOS>MOLECULE
*****
 50 53 0 0 0
SMALL
GASTEIGER

@<TRIPOS>ATOM
     1 C         -0.105281   -2.043482   -0.764135 C.3        1 UNL1     0.1889
     2 C         -0.528068   -0.549969   -0.788822 C.3        1 UNL1     0.1342
     3 C         -2.038342   -0.308562   -0.64301 C.3        1 UNL1     0.1174
     4 C         -2.880753   -1.396534   -1.313666 C.3        1 UNL1     0.1456
     5 C         -2.389292   -2.815877   -0.975592 C.3        1 UNL1     0.2326
     6 O         -1.02062   -2.958132   -1.348913 O.3        1 UNL1     -0.3076
     7 O         -2.647453   -3.202629   0.386428 O.3        1 UNL1     -0.4605
     8 C         -3.91016   -3.704837   0.645054 C.ar        1 UNL1     0.1310
     9 C         -4.993644   -2.963593   1.128707 C.ar        1 UNL1     0.0226
     10 C         -6.241365   -3.561232   1.342997 C.ar        1 UNL1     0.1343
     11 C         -6.442479   -4.91068   1.05597 C.ar        1 UNL1     0.1007
     12 C         -5.357244   -5.670583   0.611451 C.ar        1 UNL1     0.1389
     13 C         -4.102078   -5.070023   0.398575 C.ar        1 UNL1     0.0229
     14 C         -7.760994   -5.573446   1.184087 C.2        1 UNL1     0.1740
     15 C         -7.846653   -6.962565   0.62323 C.3        1 UNL1     0.0520
     16 C         -6.561009   -7.701543   0.968178 C.3        1 UNL1     0.1322
     17 O         -5.415018   -7.028822   0.401413 O.3        1 UNL1     -0.4828
     18 C         -6.425814   -8.04211   2.454267 C.ar        1 UNL1     -0.0067
     19 C         -7.370065   -7.53396   3.369902 C.ar        1 UNL1     -0.0516
     20 C         -7.248874   -7.786999   4.741487 C.ar        1 UNL1     -0.0198
     21 C         -6.186249   -8.538931   5.209734 C.ar        1 UNL1     0.1169
     22 C         -5.258917   -9.08096   4.329338 C.ar        1 UNL1     -0.0198
     23 C         -5.39017   -8.84351   2.955859 C.ar        1 UNL1     -0.0516
     24 O         -6.080016   -8.73281   6.555664 O.3        1 UNL1     -0.5068
     25 O         -8.755847   -5.016974   1.641349 O.2        1 UNL1     -0.2917
     26 O         -7.256798   -2.783044   1.817239 O.3        1 UNL1     -0.5058
     27 O         0.334799   -2.48548   0.510131 O.3        1 UNL1     -0.3648
     28 O         -0.1231   0.017952   -2.048255 O.3        1 UNL1     -0.3841
     29 O         -2.38901   -0.102876   0.726974 O.3        1 UNL1     -0.3863
     30 O         -2.832479   -1.217556   -2.745911 O.3        1 UNL1     -0.3829
     31 H         0.782601   -2.127811   -1.400244 H        1 UNL1     0.0937
     32 H         0.0   0.0   0.0 H        1 UNL1     0.0671
     33 H         -2.277415   0.636471   -1.150431 H        1 UNL1     0.0649
     34 H         -3.929558   -1.295831   -1.013218 H        1 UNL1     0.0683
     35 H         -2.971052   -3.463356   -1.643577 H        1 UNL1     0.1085
     36 H         -4.916781   -1.898519   1.317994 H        1 UNL1     0.0691
     37 H         -3.272937   -5.683758   0.053107 H        1 UNL1     0.0691
     38 H         -7.972917   -6.874703   -0.461143 H        1 UNL1     0.0385
     39 H         -8.732732   -7.460494   1.03153 H        1 UNL1     0.0385
     40 H         -6.595077   -8.669534   0.45015 H        1 UNL1     0.0789
     41 H         -8.208073   -6.933299   3.028436 H        1 UNL1     0.0623
     42 H         -7.976841   -7.379647   5.438724 H        1 UNL1     0.0654
     43 H         -4.431364   -9.683794   4.683821 H        1 UNL1     0.0654
     44 H         -4.653481   -9.291266   2.295821 H        1 UNL1     0.0623
     45 H         -5.92508   -7.87246   6.978168 H        1 UNL1     0.2921
     46 H         -6.887303   -2.040726   2.321074 H        1 UNL1     0.2922
     47 H         1.008038   -1.884621   0.858809 H        1 UNL1     0.2126
     48 H         0.841524   0.16025   -1.993635 H        1 UNL1     0.2101
     49 H         -3.224448   -0.555114   0.925265 H        1 UNL1     0.2100
     50 H         -3.160879   -2.04048   -3.163837 H        1 UNL1     0.2102
@<TRIPOS>BOND
     1     1     2    1
     2     1     6    1
     3     2     3    1
     4     3     4    1
     5     3    29    1
     6     3    33    1
     7     4     5    1
     8     5     6    1
     9     5     7    1
    10     5    35    1
    11     7     8    1
    12     8     9   ar
    13     8    13   ar
    14     9    10   ar
    15     9    36    1
    16    10    11   ar
    17    10    26    1
    18    11    12   ar
    19    11    14    1
    20    12    13   ar
    21    12    17    1
    22    13    37    1
    23    14    15    1
    24    14    25    2
    25    15    16    1
    26    15    38    1
    27    15    39    1
    28    16    17    1
    29    16    18    1
    30    16    40    1
    31    18    19   ar
    32    18    23   ar
    33    19    20   ar
    34    19    41    1
    35    20    21   ar
    36    20    42    1
    37    21    22   ar
    38    21    24    1
    39    22    23   ar
    40    22    43    1
    41    23    44    1
    42    24    45    1
    43    26    46    1
    44    27    47    1
    45    28    48    1
    46    29    49    1
    47    30    50    1
    48     1    31    1
    49     1    27    1
    50     2    32    1
    51     2    28    1
    52     4    34    1
    53     4    30    1
