@<TRIPOS>MOLECULE
*****
 50 53 0 0 0
SMALL
GASTEIGER

@<TRIPOS>ATOM
     1 C         -0.286058   -1.399259   1.652589 C.3        1 UNL1     0.1889
     2 C         -0.452716   -0.985477   0.165662 C.3        1 UNL1     0.1342
     3 C         -1.905387   -0.959961   -0.3339 C.3        1 UNL1     0.1174
     4 C         -2.770799   -2.050966   0.301621 C.3        1 UNL1     0.1456
     5 C         -2.584142   -2.138369   1.827362 C.3        1 UNL1     0.2326
     6 O         -1.210488   -2.36217   2.136971 O.3        1 UNL1     -0.3076
     7 O         -3.150088   -1.022711   2.538932 O.3        1 UNL1     -0.4605
     8 C         -3.640114   -1.295746   3.80339 C.ar        1 UNL1     0.1310
     9 C         -4.449594   -2.385784   4.140819 C.ar        1 UNL1     0.0226
     10 C         -4.882189   -2.585952   5.457139 C.ar        1 UNL1     0.1343
     11 C         -4.495769   -1.713215   6.473432 C.ar        1 UNL1     0.1007
     12 C         -3.721446   -0.59833   6.141411 C.ar        1 UNL1     0.1389
     13 C         -3.288792   -0.395827   4.817313 C.ar        1 UNL1     0.0229
     14 C         -4.854427   -1.923507   7.895155 C.2        1 UNL1     0.1740
     15 C         -4.171922   -1.017842   8.877757 C.3        1 UNL1     0.0520
     16 C         -4.114038   0.382353   8.282726 C.3        1 UNL1     0.1322
     17 O         -3.374311   0.381999   7.04181 O.3        1 UNL1     -0.4828
     18 C         -5.475727   1.077435   8.209323 C.ar        1 UNL1     -0.0067
     19 C         -5.866759   1.709869   7.011268 C.ar        1 UNL1     -0.0516
     20 C         -7.084551   2.395076   6.925036 C.ar        1 UNL1     -0.0198
     21 C         -7.914928   2.461199   8.02954 C.ar        1 UNL1     0.1169
     22 C         -7.572787   1.820104   9.213084 C.ar        1 UNL1     -0.0198
     23 C         -6.363544   1.119213   9.293957 C.ar        1 UNL1     -0.0516
     24 O         -9.07541   3.169413   7.919474 O.3        1 UNL1     -0.5068
     25 O         -5.595936   -2.824102   8.279313 O.2        1 UNL1     -0.2917
     26 O         -5.670777   -3.66794   5.719847 O.3        1 UNL1     -0.5058
     27 O         -0.1676   -0.295942   2.536585 O.3        1 UNL1     -0.3648
     28 O         0.265362   -1.927151   -0.653068 O.3        1 UNL1     -0.3841
     29 O         -2.467852   0.345929   -0.191015 O.3        1 UNL1     -0.3863
     30 O         -2.428417   -3.32699   -0.281668 O.3        1 UNL1     -0.3829
     31 H         0.67976   -1.910621   1.728635 H        1 UNL1     0.0937
     32 H         0.0   0.0   0.0 H        1 UNL1     0.0671
     33 H         -1.891582   -1.154968   -1.415335 H        1 UNL1     0.0649
     34 H         -3.827427   -1.868737   0.076387 H        1 UNL1     0.0683
     35 H         -3.12701   -3.049485   2.108504 H        1 UNL1     0.1085
     36 H         -4.738041   -3.130542   3.407161 H        1 UNL1     0.0691
     37 H         -2.687693   0.480539   4.584602 H        1 UNL1     0.0691
     38 H         -3.166148   -1.41519   9.051134 H        1 UNL1     0.0385
     39 H         -4.717606   -1.04202   9.82719 H        1 UNL1     0.0385
     40 H         -3.509684   0.998196   8.962441 H        1 UNL1     0.0789
     41 H         -5.228466   1.680204   6.133002 H        1 UNL1     0.0623
     42 H         -7.369402   2.888789   5.999229 H        1 UNL1     0.0654
     43 H         -8.222593   1.852817   10.079451 H        1 UNL1     0.0654
     44 H         -6.133022   0.621262   10.23084 H        1 UNL1     0.0623
     45 H         -8.852617   4.097284   7.740206 H        1 UNL1     0.2921
     46 H         -5.256117   -4.210821   6.408866 H        1 UNL1     0.2922
     47 H         0.552712   0.284313   2.253187 H        1 UNL1     0.2126
     48 H         1.209579   -1.836839   -0.420621 H        1 UNL1     0.2101
     49 H         -2.052755   0.954929   -0.822369 H        1 UNL1     0.2100
     50 H         -2.688414   -3.306345   -1.22596 H        1 UNL1     0.2102
@<TRIPOS>BOND
     1     1     2    1
     2     1     6    1
     3     2     3    1
     4     3     4    1
     5     3    29    1
     6     3    33    1
     7     4     5    1
     8     5     6    1
     9     5     7    1
    10     5    35    1
    11     7     8    1
    12     8     9   ar
    13     8    13   ar
    14     9    10   ar
    15     9    36    1
    16    10    11   ar
    17    10    26    1
    18    11    12   ar
    19    11    14    1
    20    12    13   ar
    21    12    17    1
    22    13    37    1
    23    14    15    1
    24    14    25    2
    25    15    16    1
    26    15    38    1
    27    15    39    1
    28    16    17    1
    29    16    18    1
    30    16    40    1
    31    18    19   ar
    32    18    23   ar
    33    19    20   ar
    34    19    41    1
    35    20    21   ar
    36    20    42    1
    37    21    22   ar
    38    21    24    1
    39    22    23   ar
    40    22    43    1
    41    23    44    1
    42    24    45    1
    43    26    46    1
    44    27    47    1
    45    28    48    1
    46    29    49    1
    47    30    50    1
    48     1    31    1
    49     1    27    1
    50     2    32    1
    51     2    28    1
    52     4    34    1
    53     4    30    1
