@<TRIPOS>MOLECULE
*****
 50 53 0 0 0
SMALL
GASTEIGER

@<TRIPOS>ATOM
     1 C         -0.300353   -1.314665   1.718211 C.3        1 UNL1     0.1889
     2 C         -0.445001   -0.980727   0.209071 C.3        1 UNL1     0.1342
     3 C         -1.88876   -0.998112   -0.316022 C.3        1 UNL1     0.1174
     4 C         -2.753583   -2.064582   0.360617 C.3        1 UNL1     0.1456
     5 C         -2.593126   -2.070356   1.89182 C.3        1 UNL1     0.2326
     6 O         -1.222869   -2.26177   2.236239 O.3        1 UNL1     -0.3076
     7 O         -3.183543   -0.925862   2.534364 O.3        1 UNL1     -0.4605
     8 C         -3.682827   -1.135732   3.807234 C.ar        1 UNL1     0.1310
     9 C         -4.479186   -2.217921   4.197079 C.ar        1 UNL1     0.0226
     10 C         -4.922711   -2.351251   5.518219 C.ar        1 UNL1     0.1343
     11 C         -4.560483   -1.417262   6.487908 C.ar        1 UNL1     0.1007
     12 C         -3.799711   -0.310521   6.101729 C.ar        1 UNL1     0.1389
     13 C         -3.356079   -0.175293   4.772694 C.ar        1 UNL1     0.0229
     14 C         -4.931055   -1.553658   7.915573 C.2        1 UNL1     0.1740
     15 C         -4.272934   -0.583999   8.852689 C.3        1 UNL1     0.0520
     16 C         -4.230011   0.781611   8.180957 C.3        1 UNL1     0.1322
     17 O         -3.47716   0.723804   6.949315 O.3        1 UNL1     -0.4828
     18 C         -5.601256   1.449943   8.055484 C.ar        1 UNL1     -0.0067
     19 C         -5.995128   1.995191   6.816217 C.ar        1 UNL1     -0.0516
     20 C         -7.222282   2.654954   6.679218 C.ar        1 UNL1     -0.0198
     21 C         -8.059335   2.782245   7.773277 C.ar        1 UNL1     0.1169
     22 C         -7.714146   2.226662   8.998435 C.ar        1 UNL1     -0.0198
     23 C         -6.495284   1.550768   9.131097 C.ar        1 UNL1     -0.0516
     24 O         -9.229395   3.464223   7.611207 O.3        1 UNL1     -0.5068
     25 O         -5.662835   -2.443047   8.342154 O.2        1 UNL1     -0.2917
     26 O         -5.697506   -3.429236   5.833218 O.3        1 UNL1     -0.5058
     27 O         -0.209443   -0.165573   2.54532 O.3        1 UNL1     -0.3648
     28 O         0.297554   -1.955287   -0.546939 O.3        1 UNL1     -0.3841
     29 O         -2.467635   0.306814   -0.251173 O.3        1 UNL1     -0.3863
     30 O         -2.387242   -3.365143   -0.14931 O.3        1 UNL1     -0.3829
     31 H         0.669386   -1.810118   1.837422 H        1 UNL1     0.0937
     32 H         0.0   0.0   0.0 H        1 UNL1     0.0671
     33 H         -1.853663   -1.248914   -1.385408 H        1 UNL1     0.0649
     34 H         -3.807936   -1.906609   0.108061 H        1 UNL1     0.0683
     35 H         -3.131107   -2.97187   2.210767 H        1 UNL1     0.1085
     36 H         -4.748421   -3.006855   3.503381 H        1 UNL1     0.0691
     37 H         -2.765933   0.696128   4.497291 H        1 UNL1     0.0691
     38 H         -3.263139   -0.955146   9.057851 H        1 UNL1     0.0385
     39 H         -4.82829   -0.563858   9.796592 H        1 UNL1     0.0385
     40 H         -3.642385   1.443828   8.8311 H        1 UNL1     0.0789
     41 H         -5.351856   1.916508   5.944631 H        1 UNL1     0.0623
     42 H         -7.509403   3.081539   5.721304 H        1 UNL1     0.0654
     43 H         -8.368911   2.307423   9.857894 H        1 UNL1     0.0654
     44 H         -6.262482   1.119886   10.100111 H        1 UNL1     0.0623
     45 H         -9.019587   4.375387   7.349526 H        1 UNL1     0.2921
     46 H         -5.282013   -3.926276   6.555525 H        1 UNL1     0.2922
     47 H         0.520912   0.398694   2.255415 H        1 UNL1     0.2126
     48 H         1.233258   -1.859234   -0.284327 H        1 UNL1     0.2101
     49 H         -2.042216   0.8892   -0.900511 H        1 UNL1     0.2100
     50 H         -2.630634   -3.396652   -1.097719 H        1 UNL1     0.2102
@<TRIPOS>BOND
     1     1     2    1
     2     1     6    1
     3     2     3    1
     4     3     4    1
     5     3    29    1
     6     3    33    1
     7     4     5    1
     8     5     6    1
     9     5     7    1
    10     5    35    1
    11     7     8    1
    12     8     9   ar
    13     8    13   ar
    14     9    10   ar
    15     9    36    1
    16    10    11   ar
    17    10    26    1
    18    11    12   ar
    19    11    14    1
    20    12    13   ar
    21    12    17    1
    22    13    37    1
    23    14    15    1
    24    14    25    2
    25    15    16    1
    26    15    38    1
    27    15    39    1
    28    16    17    1
    29    16    18    1
    30    16    40    1
    31    18    19   ar
    32    18    23   ar
    33    19    20   ar
    34    19    41    1
    35    20    21   ar
    36    20    42    1
    37    21    22   ar
    38    21    24    1
    39    22    23   ar
    40    22    43    1
    41    23    44    1
    42    24    45    1
    43    26    46    1
    44    27    47    1
    45    28    48    1
    46    29    49    1
    47    30    50    1
    48     1    31    1
    49     1    27    1
    50     2    32    1
    51     2    28    1
    52     4    34    1
    53     4    30    1
