@<TRIPOS>MOLECULE
*****
 50 53 0 0 0
SMALL
GASTEIGER

@<TRIPOS>ATOM
     1 C         0.019702   -2.183274   0.061087 C.3        1 UNL1     0.1889
     2 C         -0.687875   -0.82839   -0.210142 C.3        1 UNL1     0.1342
     3 C         -1.987206   -0.613819   0.581164 C.3        1 UNL1     0.1174
     4 C         -2.776629   -1.908803   0.788394 C.3        1 UNL1     0.1456
     5 C         -1.886409   -3.074088   1.257418 C.3        1 UNL1     0.2326
     6 O         -0.833074   -3.288598   0.320754 O.3        1 UNL1     -0.3076
     7 O         -1.419271   -2.929737   2.61103 O.3        1 UNL1     -0.4605
     8 C         -0.256378   -2.199065   2.776336 C.ar        1 UNL1     0.1310
     9 C         0.429711   -2.030047   3.983819 C.ar        1 UNL1     0.0226
     10 C         1.612283   -1.28334   4.04591 C.ar        1 UNL1     0.1343
     11 C         2.150773   -0.706828   2.896344 C.ar        1 UNL1     0.1007
     12 C         1.4529   -0.834237   1.692382 C.ar        1 UNL1     0.1389
     13 C         0.262452   -1.582876   1.630716 C.ar        1 UNL1     0.0229
     14 C         3.44069   0.021331   2.889066 C.2        1 UNL1     0.1740
     15 C         3.976412   0.379564   1.533994 C.3        1 UNL1     0.0520
     16 C         2.814617   0.834257   0.661386 C.3        1 UNL1     0.1322
     17 O         1.834558   -0.218102   0.523202 O.3        1 UNL1     -0.4828
     18 C         2.234891   2.191917   1.065616 C.ar        1 UNL1     -0.0067
     19 C         2.323672   2.610558   2.409145 C.ar        1 UNL1     -0.0516
     20 C         1.762155   3.824808   2.821769 C.ar        1 UNL1     -0.0198
     21 C         1.104325   4.624126   1.904068 C.ar        1 UNL1     0.1169
     22 C         1.029531   4.254822   0.567334 C.ar        1 UNL1     -0.0198
     23 C         1.607009   3.049388   0.150792 C.ar        1 UNL1     -0.0516
     24 O         0.537106   5.781559   2.350176 O.3        1 UNL1     -0.5068
     25 O         4.089373   0.257744   3.904843 O.2        1 UNL1     -0.2917
     26 O         2.232261   -1.155702   5.254596 O.3        1 UNL1     -0.5058
     27 O         1.066068   -2.093632   1.014957 O.3        1 UNL1     -0.3648
     28 O         -1.021936   -0.760251   -1.608879 O.3        1 UNL1     -0.3841
     29 O         -1.727571   0.077844   1.804407 O.3        1 UNL1     -0.3863
     30 O         -3.411331   -2.280737   -0.454389 O.3        1 UNL1     -0.3829
     31 H         0.526032   -2.46348   -0.86907 H        1 UNL1     0.0937
     32 H         0.0   0.0   0.0 H        1 UNL1     0.0671
     33 H         -2.629004   0.059414   -0.004133 H        1 UNL1     0.0649
     34 H         -3.575566   -1.746697   1.520393 H        1 UNL1     0.0683
     35 H         -2.545617   -3.949452   1.20208 H        1 UNL1     0.1085
     36 H         0.092868   -2.499463   4.901591 H        1 UNL1     0.0691
     37 H         -0.262465   -1.66602   0.681483 H        1 UNL1     0.0691
     38 H         4.454956   -0.514431   1.120116 H        1 UNL1     0.0385
     39 H         4.740481   1.156652   1.64404 H        1 UNL1     0.0385
     40 H         3.208888   0.977273   -0.353807 H        1 UNL1     0.0789
     41 H         2.826852   1.996771   3.150582 H        1 UNL1     0.0623
     42 H         1.826891   4.130962   3.862966 H        1 UNL1     0.0654
     43 H         0.529815   4.880418   -0.162614 H        1 UNL1     0.0654
     44 H         1.53886   2.797271   -0.903076 H        1 UNL1     0.0623
     45 H         -0.415396   5.632062   2.464661 H        1 UNL1     0.2921
     46 H         2.48248   -2.033321   5.584122 H        1 UNL1     0.2922
     47 H         1.570516   -1.278783   0.882997 H        1 UNL1     0.2126
     48 H         -1.815379   -1.31563   -1.734314 H        1 UNL1     0.2101
     49 H         -1.893262   -0.510809   2.557951 H        1 UNL1     0.2100
     50 H         -3.556316   -3.249502   -0.440786 H        1 UNL1     0.2102
@<TRIPOS>BOND
     1     1     2    1
     2     1     6    1
     3     2     3    1
     4     3     4    1
     5     3    29    1
     6     3    33    1
     7     4     5    1
     8     5     6    1
     9     5     7    1
    10     5    35    1
    11     7     8    1
    12     8     9   ar
    13     8    13   ar
    14     9    10   ar
    15     9    36    1
    16    10    11   ar
    17    10    26    1
    18    11    12   ar
    19    11    14    1
    20    12    13   ar
    21    12    17    1
    22    13    37    1
    23    14    15    1
    24    14    25    2
    25    15    16    1
    26    15    38    1
    27    15    39    1
    28    16    17    1
    29    16    18    1
    30    16    40    1
    31    18    19   ar
    32    18    23   ar
    33    19    20   ar
    34    19    41    1
    35    20    21   ar
    36    20    42    1
    37    21    22   ar
    38    21    24    1
    39    22    23   ar
    40    22    43    1
    41    23    44    1
    42    24    45    1
    43    26    46    1
    44    27    47    1
    45    28    48    1
    46    29    49    1
    47    30    50    1
    48     1    31    1
    49     1    27    1
    50     2    32    1
    51     2    28    1
    52     4    34    1
    53     4    30    1
