@<TRIPOS>MOLECULE
*****
 50 53 0 0 0
SMALL
GASTEIGER

@<TRIPOS>ATOM
     1 C         -0.174115   -1.240877   1.789054 C.3        1 UNL1     0.1889
     2 C         -0.37378   -0.995681   0.269201 C.3        1 UNL1     0.1342
     3 C         -1.824306   -1.134917   -0.217682 C.3        1 UNL1     0.1174
     4 C         -2.600896   -2.219399   0.533266 C.3        1 UNL1     0.1456
     5 C         -2.406908   -2.135399   2.058283 C.3        1 UNL1     0.2326
     6 O         -1.019707   -2.218403   2.377111 O.3        1 UNL1     -0.3076
     7 O         -3.05827   -1.000407   2.657317 O.3        1 UNL1     -0.4605
     8 C         -3.514409   -1.17645   3.951332 C.ar        1 UNL1     0.1310
     9 C         -4.227937   -2.286942   4.414997 C.ar        1 UNL1     0.0226
     10 C         -4.632513   -2.380555   5.751955 C.ar        1 UNL1     0.1343
     11 C         -4.312356   -1.375891   6.66409 C.ar        1 UNL1     0.1007
     12 C         -3.635887   -0.243078   6.203754 C.ar        1 UNL1     0.1389
     13 C         -3.231505   -0.147975   4.858815 C.ar        1 UNL1     0.0229
     14 C         -4.641621   -1.462261   8.105714 C.2        1 UNL1     0.1740
     15 C         -4.0294   -0.40432   8.976056 C.3        1 UNL1     0.0520
     16 C         -4.092558   0.924575   8.235782 C.3        1 UNL1     0.1322
     17 O         -3.364689   0.852649   6.989948 O.3        1 UNL1     -0.4828
     18 C         -5.50782   1.494093   8.111648 C.ar        1 UNL1     -0.0067
     19 C         -5.964301   1.947468   6.856941 C.ar        1 UNL1     -0.0516
     20 C         -7.235508   2.517305   6.718086 C.ar        1 UNL1     -0.0198
     21 C         -8.055029   2.645828   7.825197 C.ar        1 UNL1     0.1169
     22 C         -7.646728   2.17823   9.067566 C.ar        1 UNL1     -0.0198
     23 C         -6.38281   1.591549   9.20311 C.ar        1 UNL1     -0.0516
     24 O         -9.271317   3.240253   7.658753 O.3        1 UNL1     -0.5068
     25 O         -5.302809   -2.374489   8.59475 O.2        1 UNL1     -0.2917
     26 O         -5.326451   -3.489315   6.140136 O.3        1 UNL1     -0.5058
     27 O         -0.142102   -0.047044   2.554902 O.3        1 UNL1     -0.3648
     28 O         0.415502   -1.95722   -0.455494 O.3        1 UNL1     -0.3841
     29 O         -2.487531   0.130813   -0.203772 O.3        1 UNL1     -0.3863
     30 O         -2.159719   -3.517755   0.080136 O.3        1 UNL1     -0.3829
     31 H         0.828944   -1.664792   1.908414 H        1 UNL1     0.0937
     32 H         0.0   0.0   0.0 H        1 UNL1     0.0671
     33 H         -1.795961   -1.437868   -1.273682 H        1 UNL1     0.0649
     34 H         -3.668728   -2.144235   0.299844 H        1 UNL1     0.0683
     35 H         -2.876324   -3.052561   2.435562 H        1 UNL1     0.1085
     36 H         -4.45898   -3.126676   3.768787 H        1 UNL1     0.0691
     37 H         -2.707087   0.744875   4.525202 H        1 UNL1     0.0691
     38 H         -2.992809   -0.697288   9.173981 H        1 UNL1     0.0385
     39 H         -4.56405   -0.371855   9.931501 H        1 UNL1     0.0385
     40 H         -3.536399   1.656675   8.836811 H        1 UNL1     0.0789
     41 H         -5.336457   1.866177   5.974414 H        1 UNL1     0.0623
     42 H         -7.57141   2.873994   5.747543 H        1 UNL1     0.0654
     43 H         -8.286441   2.26021   9.938173 H        1 UNL1     0.0654
     44 H         -6.100562   1.227588   10.186326 H        1 UNL1     0.0623
     45 H         -9.12873   4.147548   7.343789 H        1 UNL1     0.2921
     46 H         -4.862219   -3.920756   6.874819 H        1 UNL1     0.2922
     47 H         0.544236   0.547019   2.220404 H        1 UNL1     0.2126
     48 H         1.347303   -1.793873   -0.213014 H        1 UNL1     0.2101
     49 H         -2.116309   0.705482   -0.892062 H        1 UNL1     0.2100
     50 H         -2.416177   -3.611935   -0.860647 H        1 UNL1     0.2102
@<TRIPOS>BOND
     1     1     2    1
     2     1     6    1
     3     2     3    1
     4     3     4    1
     5     3    29    1
     6     3    33    1
     7     4     5    1
     8     5     6    1
     9     5     7    1
    10     5    35    1
    11     7     8    1
    12     8     9   ar
    13     8    13   ar
    14     9    10   ar
    15     9    36    1
    16    10    11   ar
    17    10    26    1
    18    11    12   ar
    19    11    14    1
    20    12    13   ar
    21    12    17    1
    22    13    37    1
    23    14    15    1
    24    14    25    2
    25    15    16    1
    26    15    38    1
    27    15    39    1
    28    16    17    1
    29    16    18    1
    30    16    40    1
    31    18    19   ar
    32    18    23   ar
    33    19    20   ar
    34    19    41    1
    35    20    21   ar
    36    20    42    1
    37    21    22   ar
    38    21    24    1
    39    22    23   ar
    40    22    43    1
    41    23    44    1
    42    24    45    1
    43    26    46    1
    44    27    47    1
    45    28    48    1
    46    29    49    1
    47    30    50    1
    48     1    31    1
    49     1    27    1
    50     2    32    1
    51     2    28    1
    52     4    34    1
    53     4    30    1
