@<TRIPOS>MOLECULE
*****
 50 53 0 0 0
SMALL
GASTEIGER

@<TRIPOS>ATOM
     1 C         2.033604   0.684626   -0.408099 C.3        1 UNL1     0.1889
     2 C         0.961153   0.061344   0.525341 C.3        1 UNL1     0.1342
     3 C         0.758896   0.803758   1.855145 C.3        1 UNL1     0.1174
     4 C         2.056444   1.402228   2.404071 C.3        1 UNL1     0.1456
     5 C         2.861239   2.153862   1.328099 C.3        1 UNL1     0.2326
     6 O         3.148643   1.281106   0.237886 O.3        1 UNL1     -0.3076
     7 O         2.252316   3.391386   0.916921 O.3        1 UNL1     -0.4605
     8 C         2.982422   4.539135   1.168207 C.ar        1 UNL1     0.1310
     9 C         2.640701   5.826726   0.740847 C.ar        1 UNL1     0.0226
     10 C         3.438695   6.931356   1.061626 C.ar        1 UNL1     0.1343
     11 C         4.58625   6.778328   1.838506 C.ar        1 UNL1     0.1007
     12 C         4.959872   5.491935   2.23648 C.ar        1 UNL1     0.1389
     13 C         4.158745   4.381052   1.911573 C.ar        1 UNL1     0.0229
     14 C         5.420013   7.92133   2.277299 C.2        1 UNL1     0.1740
     15 C         6.482242   7.60018   3.28729 C.3        1 UNL1     0.0520
     16 C         7.114446   6.266398   2.914063 C.3        1 UNL1     0.1322
     17 O         6.125656   5.213137   2.911377 O.3        1 UNL1     -0.4828
     18 C         7.980798   6.326386   1.653682 C.ar        1 UNL1     -0.0067
     19 C         8.131247   5.169968   0.861043 C.ar        1 UNL1     -0.0516
     20 C         8.954098   5.177491   -0.271574 C.ar        1 UNL1     -0.0198
     21 C         9.6361   6.330428   -0.617173 C.ar        1 UNL1     0.1169
     22 C         9.482009   7.494518   0.12444 C.ar        1 UNL1     -0.0198
     23 C         8.644772   7.492473   1.246529 C.ar        1 UNL1     -0.0516
     24 O         10.457882   6.289218   -1.705003 O.3        1 UNL1     -0.5068
     25 O         5.224577   9.078801   1.915981 O.2        1 UNL1     -0.2917
     26 O         3.050363   8.160055   0.613204 O.3        1 UNL1     -0.5058
     27 O         1.489884   1.534458   -1.405566 O.3        1 UNL1     -0.3648
     28 O         1.359756   -1.285154   0.842775 O.3        1 UNL1     -0.3841
     29 O         -0.290999   1.766783   1.743629 O.3        1 UNL1     -0.3863
     30 O         2.87697   0.342141   2.941324 O.3        1 UNL1     -0.3829
     31 H         2.47705   -0.143436   -0.971789 H        1 UNL1     0.0937
     32 H         -0.0   0.0   0.0 H        1 UNL1     0.0671
     33 H         0.407124   0.0732   2.59694 H        1 UNL1     0.0649
     34 H         1.832787   2.085003   3.231233 H        1 UNL1     0.0683
     35 H         3.816848   2.375848   1.819439 H        1 UNL1     0.1085
     36 H         1.731739   6.019437   0.181587 H        1 UNL1     0.0691
     37 H         4.472186   3.389935   2.232409 H        1 UNL1     0.0691
     38 H         6.00039   7.547789   4.269431 H        1 UNL1     0.0385
     39 H         7.214945   8.414099   3.308752 H        1 UNL1     0.0385
     40 H         7.802017   5.995413   3.726672 H        1 UNL1     0.0789
     41 H         7.613807   4.2498   1.116382 H        1 UNL1     0.0623
     42 H         9.07125   4.275999   -0.867894 H        1 UNL1     0.0654
     43 H         9.999632   8.407134   -0.145946 H        1 UNL1     0.0654
     44 H         8.539521   8.422582   1.796679 H        1 UNL1     0.0623
     45 H         9.975902   6.64888   -2.467273 H        1 UNL1     0.2921
     46 H         3.790984   8.781956   0.691516 H        1 UNL1     0.2922
     47 H         0.903991   2.190758   -1.00325 H        1 UNL1     0.2126
     48 H         2.189958   -1.218224   1.352694 H        1 UNL1     0.2101
     49 H         -1.152452   1.321104   1.776252 H        1 UNL1     0.2100
     50 H         2.343131   -0.479263   2.946354 H        1 UNL1     0.2102
@<TRIPOS>BOND
     1     1     2    1
     2     1     6    1
     3     2     3    1
     4     3     4    1
     5     3    29    1
     6     3    33    1
     7     4     5    1
     8     5     6    1
     9     5     7    1
    10     5    35    1
    11     7     8    1
    12     8     9   ar
    13     8    13   ar
    14     9    10   ar
    15     9    36    1
    16    10    11   ar
    17    10    26    1
    18    11    12   ar
    19    11    14    1
    20    12    13   ar
    21    12    17    1
    22    13    37    1
    23    14    15    1
    24    14    25    2
    25    15    16    1
    26    15    38    1
    27    15    39    1
    28    16    17    1
    29    16    18    1
    30    16    40    1
    31    18    19   ar
    32    18    23   ar
    33    19    20   ar
    34    19    41    1
    35    20    21   ar
    36    20    42    1
    37    21    22   ar
    38    21    24    1
    39    22    23   ar
    40    22    43    1
    41    23    44    1
    42    24    45    1
    43    26    46    1
    44    27    47    1
    45    28    48    1
    46    29    49    1
    47    30    50    1
    48     1    31    1
    49     1    27    1
    50     2    32    1
    51     2    28    1
    52     4    34    1
    53     4    30    1
