@<TRIPOS>MOLECULE
*****
 50 53 0 0 0
SMALL
GASTEIGER

@<TRIPOS>ATOM
     1 C         -1.540762   -0.572634   1.438384 C.3        1 UNL1     0.1889
     2 C         -0.666528   0.490383   0.720296 C.3        1 UNL1     0.1342
     3 C         0.171595   1.371712   1.659059 C.3        1 UNL1     0.1174
     4 C         -0.537124   1.670622   2.982496 C.3        1 UNL1     0.1456
     5 C         -1.159636   0.412963   3.615849 C.3        1 UNL1     0.2326
     6 O         -2.069481   -0.192761   2.700345 O.3        1 UNL1     -0.3076
     7 O         -0.184935   -0.508281   4.137948 O.3        1 UNL1     -0.4605
     8 C         -0.659084   -1.448763   5.034723 C.ar        1 UNL1     0.1310
     9 C         0.110445   -2.442186   5.649732 C.ar        1 UNL1     0.0226
     10 C         -0.46016   -3.340033   6.559778 C.ar        1 UNL1     0.1343
     11 C         -1.810482   -3.251043   6.895266 C.ar        1 UNL1     0.1007
     12 C         -2.59801   -2.289337   6.256748 C.ar        1 UNL1     0.1389
     13 C         -2.024599   -1.388368   5.33975 C.ar        1 UNL1     0.0229
     14 C         -2.446394   -4.119592   7.912809 C.2        1 UNL1     0.1740
     15 C         -3.843312   -3.74061   8.308464 C.3        1 UNL1     0.0520
     16 C         -4.599785   -3.315389   7.057507 C.3        1 UNL1     0.1322
     17 O         -3.958422   -2.182849   6.430548 O.3        1 UNL1     -0.4828
     18 C         -4.916683   -4.471774   6.106153 C.ar        1 UNL1     -0.0067
     19 C         -5.851914   -4.27864   5.068726 C.ar        1 UNL1     -0.0516
     20 C         -6.199838   -5.328645   4.210588 C.ar        1 UNL1     -0.0198
     21 C         -5.626375   -6.575643   4.383685 C.ar        1 UNL1     0.1169
     22 C         -4.677301   -6.788036   5.375143 C.ar        1 UNL1     -0.0198
     23 C         -4.315472   -5.73335   6.221767 C.ar        1 UNL1     -0.0516
     24 O         -6.0179   -7.583879   3.552681 O.3        1 UNL1     -0.5068
     25 O         -1.863679   -5.0457   8.470707 O.2        1 UNL1     -0.2917
     26 O         0.344877   -4.286254   7.12384 O.3        1 UNL1     -0.5058
     27 O         -0.942056   -1.857934   1.486791 O.3        1 UNL1     -0.3648
     28 O         -1.532904   1.363921   -0.027387 O.3        1 UNL1     -0.3841
     29 O         1.476605   0.819086   1.842602 O.3        1 UNL1     -0.3863
     30 O         -1.582502   2.639951   2.751682 O.3        1 UNL1     -0.3829
     31 H         -2.433159   -0.714009   0.818933 H        1 UNL1     0.0937
     32 H         0.0   0.0   0.0 H        1 UNL1     0.0671
     33 H         0.331275   2.337164   1.158934 H        1 UNL1     0.0649
     34 H         0.167229   2.121247   3.690468 H        1 UNL1     0.0683
     35 H         -1.757899   0.804415   4.44815 H        1 UNL1     0.1085
     36 H         1.17707   -2.528078   5.473512 H        1 UNL1     0.0691
     37 H         -2.659531   -0.649615   4.855396 H        1 UNL1     0.0691
     38 H         -3.772157   -2.916456   9.026261 H        1 UNL1     0.0385
     39 H         -4.317527   -4.591081   8.810059 H        1 UNL1     0.0385
     40 H         -5.575915   -2.931989   7.384148 H        1 UNL1     0.0789
     41 H         -6.32295   -3.311688   4.917795 H        1 UNL1     0.0623
     42 H         -6.931169   -5.170297   3.421859 H        1 UNL1     0.0654
     43 H         -4.210838   -7.756617   5.509952 H        1 UNL1     0.0654
     44 H         -3.562918   -5.932108   6.978735 H        1 UNL1     0.0623
     45 H         -6.252955   -7.198855   2.6929 H        1 UNL1     0.2921
     46 H         0.825152   -3.898027   7.872189 H        1 UNL1     0.2922
     47 H         -0.405649   -1.947508   2.286856 H        1 UNL1     0.2126
     48 H         -1.715403   0.917176   -0.876413 H        1 UNL1     0.2101
     49 H         1.481243   -0.113031   1.572548 H        1 UNL1     0.2100
     50 H         -1.301355   3.215953   2.01081 H        1 UNL1     0.2102
@<TRIPOS>BOND
     1     1     2    1
     2     1     6    1
     3     2     3    1
     4     3     4    1
     5     3    29    1
     6     3    33    1
     7     4     5    1
     8     5     6    1
     9     5     7    1
    10     5    35    1
    11     7     8    1
    12     8     9   ar
    13     8    13   ar
    14     9    10   ar
    15     9    36    1
    16    10    11   ar
    17    10    26    1
    18    11    12   ar
    19    11    14    1
    20    12    13   ar
    21    12    17    1
    22    13    37    1
    23    14    15    1
    24    14    25    2
    25    15    16    1
    26    15    38    1
    27    15    39    1
    28    16    17    1
    29    16    18    1
    30    16    40    1
    31    18    19   ar
    32    18    23   ar
    33    19    20   ar
    34    19    41    1
    35    20    21   ar
    36    20    42    1
    37    21    22   ar
    38    21    24    1
    39    22    23   ar
    40    22    43    1
    41    23    44    1
    42    24    45    1
    43    26    46    1
    44    27    47    1
    45    28    48    1
    46    29    49    1
    47    30    50    1
    48     1    31    1
    49     1    27    1
    50     2    32    1
    51     2    28    1
    52     4    34    1
    53     4    30    1
