@<TRIPOS>MOLECULE
*****
 50 53 0 0 0
SMALL
GASTEIGER

@<TRIPOS>ATOM
     1 C         -0.750495   1.831026   0.924611 C.3        1 UNL1     0.1889
     2 C         0.355229   1.018874   0.198165 C.3        1 UNL1     0.1342
     3 C         1.694318   0.94576   0.947806 C.3        1 UNL1     0.1174
     4 C         2.011911   2.227584   1.721873 C.3        1 UNL1     0.1456
     5 C         0.809848   2.737735   2.537442 C.3        1 UNL1     0.2326
     6 O         -0.306441   2.950842   1.676424 O.3        1 UNL1     -0.3076
     7 O         0.497701   1.913368   3.675117 O.3        1 UNL1     -0.4605
     8 C         -0.322745   2.484891   4.631024 C.ar        1 UNL1     0.1310
     9 C         -0.7496   1.862849   5.809225 C.ar        1 UNL1     0.0226
     10 C         -1.568426   2.533117   6.725832 C.ar        1 UNL1     0.1343
     11 C         -1.961143   3.851273   6.497626 C.ar        1 UNL1     0.1007
     12 C         -1.575023   4.469015   5.305112 C.ar        1 UNL1     0.1389
     13 C         -0.753879   3.793944   4.382382 C.ar        1 UNL1     0.0229
     14 C         -2.756038   4.634816   7.471462 C.2        1 UNL1     0.1740
     15 C         -2.89728   6.097322   7.167037 C.3        1 UNL1     0.0520
     16 C         -3.112975   6.258898   5.668596 C.3        1 UNL1     0.1322
     17 O         -1.993195   5.724304   4.92875 O.3        1 UNL1     -0.4828
     18 C         -4.481897   5.77213   5.187104 C.ar        1 UNL1     -0.0067
     19 C         -4.75412   4.388925   5.157933 C.ar        1 UNL1     -0.0516
     20 C         -5.978362   3.907717   4.678732 C.ar        1 UNL1     -0.0198
     21 C         -6.933617   4.797069   4.220073 C.ar        1 UNL1     0.1169
     22 C         -6.707903   6.166617   4.267305 C.ar        1 UNL1     -0.0198
     23 C         -5.490935   6.649007   4.763638 C.ar        1 UNL1     -0.0516
     24 O         -8.099064   4.289654   3.725437 O.3        1 UNL1     -0.5068
     25 O         -3.212134   4.161051   8.50877 O.2        1 UNL1     -0.2917
     26 O         -1.950704   1.869738   7.855158 O.3        1 UNL1     -0.5058
     27 O         -1.648516   1.02331   1.668881 O.3        1 UNL1     -0.3648
     28 O         0.611291   1.636231   -1.076985 O.3        1 UNL1     -0.3841
     29 O         1.754023   -0.22417   1.766238 O.3        1 UNL1     -0.3863
     30 O         2.411266   3.256692   0.790669 O.3        1 UNL1     -0.3829
     31 H         -1.374481   2.278381   0.143205 H        1 UNL1     0.0937
     32 H         0.0   -0.0   0.0 H        1 UNL1     0.0671
     33 H         2.490438   0.820145   0.200723 H        1 UNL1     0.0649
     34 H         2.859642   2.057746   2.394857 H        1 UNL1     0.0683
     35 H         1.131258   3.724663   2.893178 H        1 UNL1     0.1085
     36 H         -0.432964   0.859229   6.071161 H        1 UNL1     0.0691
     37 H         -0.468039   4.296598   3.4609 H        1 UNL1     0.0691
     38 H         -1.975362   6.593181   7.48909 H        1 UNL1     0.0385
     39 H         -3.728146   6.507002   7.751504 H        1 UNL1     0.0385
     40 H         -3.095285   7.33586   5.453281 H        1 UNL1     0.0789
     41 H         -4.01722   3.669907   5.503827 H        1 UNL1     0.0623
     42 H         -6.17172   2.838226   4.650237 H        1 UNL1     0.0654
     43 H         -7.454958   6.872609   3.924676 H        1 UNL1     0.0654
     44 H         -5.352629   7.725428   4.795807 H        1 UNL1     0.0623
     45 H         -7.892092   3.495208   3.207042 H        1 UNL1     0.2921
     46 H         -2.913762   1.751788   7.850734 H        1 UNL1     0.2922
     47 H         -2.55869   1.183792   1.383069 H        1 UNL1     0.2126
     48 H         1.460707   1.275703   -1.396742 H        1 UNL1     0.2101
     49 H         1.613508   -1.015223   1.221917 H        1 UNL1     0.2100
     50 H         2.887073   3.949994   1.293314 H        1 UNL1     0.2102
@<TRIPOS>BOND
     1     1     2    1
     2     1     6    1
     3     2     3    1
     4     3     4    1
     5     3    29    1
     6     3    33    1
     7     4     5    1
     8     5     6    1
     9     5     7    1
    10     5    35    1
    11     7     8    1
    12     8     9   ar
    13     8    13   ar
    14     9    10   ar
    15     9    36    1
    16    10    11   ar
    17    10    26    1
    18    11    12   ar
    19    11    14    1
    20    12    13   ar
    21    12    17    1
    22    13    37    1
    23    14    15    1
    24    14    25    2
    25    15    16    1
    26    15    38    1
    27    15    39    1
    28    16    17    1
    29    16    18    1
    30    16    40    1
    31    18    19   ar
    32    18    23   ar
    33    19    20   ar
    34    19    41    1
    35    20    21   ar
    36    20    42    1
    37    21    22   ar
    38    21    24    1
    39    22    23   ar
    40    22    43    1
    41    23    44    1
    42    24    45    1
    43    26    46    1
    44    27    47    1
    45    28    48    1
    46    29    49    1
    47    30    50    1
    48     1    31    1
    49     1    27    1
    50     2    32    1
    51     2    28    1
    52     4    34    1
    53     4    30    1
