@<TRIPOS>MOLECULE
*****
 50 53 0 0 0
SMALL
GASTEIGER

@<TRIPOS>ATOM
     1 C         -1.538826   -0.570267   1.441393 C.3        1 UNL1     0.1889
     2 C         -0.666549   0.491698   0.71938 C.3        1 UNL1     0.1342
     3 C         0.171236   1.376909   1.654784 C.3        1 UNL1     0.1174
     4 C         -0.536755   1.678896   2.977913 C.3        1 UNL1     0.1456
     5 C         -1.157133   0.422356   3.615566 C.3        1 UNL1     0.2326
     6 O         -2.066972   -0.187274   2.702652 O.3        1 UNL1     -0.3076
     7 O         -0.180823   -0.496075   4.139611 O.3        1 UNL1     -0.4605
     8 C         -0.519828   -1.132964   5.319855 C.ar        1 UNL1     0.1310
     9 C         -0.769856   -0.497315   6.540812 C.ar        1 UNL1     0.0226
     10 C         -1.124199   -1.230779   7.679396 C.ar        1 UNL1     0.1343
     11 C         -1.260474   -2.616992   7.618693 C.ar        1 UNL1     0.1007
     12 C         -0.973424   -3.266859   6.41534 C.ar        1 UNL1     0.1389
     13 C         -0.614579   -2.529383   5.271316 C.ar        1 UNL1     0.0229
     14 C         -1.713635   -3.432769   8.769043 C.2        1 UNL1     0.1740
     15 C         -2.018228   -4.870373   8.465617 C.3        1 UNL1     0.0520
     16 C         -0.96262   -5.393346   7.501175 C.3        1 UNL1     0.1322
     17 O         -0.970668   -4.634925   6.271621 O.3        1 UNL1     -0.4828
     18 C         0.42093   -5.56128   8.133875 C.ar        1 UNL1     -0.0067
     19 C         1.439569   -6.213025   7.408743 C.ar        1 UNL1     -0.0516
     20 C         2.70184   -6.425204   7.975854 C.ar        1 UNL1     -0.0198
     21 C         2.955137   -5.997896   9.267007 C.ar        1 UNL1     0.1169
     22 C         1.982907   -5.323386   9.994087 C.ar        1 UNL1     -0.0198
     23 C         0.726424   -5.094707   9.42049 C.ar        1 UNL1     -0.0516
     24 O         4.184024   -6.255716   9.799704 O.3        1 UNL1     -0.5068
     25 O         -1.912794   -2.970185   9.889238 O.2        1 UNL1     -0.2917
     26 O         -1.35364   -0.550609   8.839702 O.3        1 UNL1     -0.5058
     27 O         -0.938443   -1.854652   1.493159 O.3        1 UNL1     -0.3648
     28 O         -1.534663   1.361882   -0.030196 O.3        1 UNL1     -0.3841
     29 O         1.477102   0.826498   1.83889 O.3        1 UNL1     -0.3863
     30 O         -1.58356   2.646196   2.745067 O.3        1 UNL1     -0.3829
     31 H         -2.431561   -0.714637   0.823121 H        1 UNL1     0.0937
     32 H         0.0   0.0   0.0 H        1 UNL1     0.0671
     33 H         0.329268   2.341056   1.151627 H        1 UNL1     0.0649
     34 H         0.167616   2.132542   3.683936 H        1 UNL1     0.0683
     35 H         -1.755198   0.815546   4.44719 H        1 UNL1     0.1085
     36 H         -0.73522   0.582139   6.639305 H        1 UNL1     0.0691
     37 H         -0.3951   -3.059173   4.346847 H        1 UNL1     0.0691
     38 H         -3.016823   -4.909897   8.017542 H        1 UNL1     0.0385
     39 H         -2.04087   -5.437895   9.402199 H        1 UNL1     0.0385
     40 H         -1.270033   -6.404548   7.20203 H        1 UNL1     0.0789
     41 H         1.262922   -6.566044   6.396901 H        1 UNL1     0.0623
     42 H         3.475282   -6.93958   7.410861 H        1 UNL1     0.0654
     43 H         2.175455   -4.971163   11.000454 H        1 UNL1     0.0654
     44 H         -0.005943   -4.55522   10.013311 H        1 UNL1     0.0623
     45 H         4.59109   -6.979005   9.295852 H        1 UNL1     0.2921
     46 H         -2.264876   -0.217386   8.844599 H        1 UNL1     0.2922
     47 H         -1.0523   -2.311763   0.648205 H        1 UNL1     0.2126
     48 H         -0.957151   1.975033   -0.524421 H        1 UNL1     0.2101
     49 H         1.482701   -0.10642   1.571634 H        1 UNL1     0.2100
     50 H         -1.160209   3.498724   2.513371 H        1 UNL1     0.2102
@<TRIPOS>BOND
     1     1     2    1
     2     1     6    1
     3     2     3    1
     4     3     4    1
     5     3    29    1
     6     3    33    1
     7     4     5    1
     8     5     6    1
     9     5     7    1
    10     5    35    1
    11     7     8    1
    12     8     9   ar
    13     8    13   ar
    14     9    10   ar
    15     9    36    1
    16    10    11   ar
    17    10    26    1
    18    11    12   ar
    19    11    14    1
    20    12    13   ar
    21    12    17    1
    22    13    37    1
    23    14    15    1
    24    14    25    2
    25    15    16    1
    26    15    38    1
    27    15    39    1
    28    16    17    1
    29    16    18    1
    30    16    40    1
    31    18    19   ar
    32    18    23   ar
    33    19    20   ar
    34    19    41    1
    35    20    21   ar
    36    20    42    1
    37    21    22   ar
    38    21    24    1
    39    22    23   ar
    40    22    43    1
    41    23    44    1
    42    24    45    1
    43    26    46    1
    44    27    47    1
    45    28    48    1
    46    29    49    1
    47    30    50    1
    48     1    31    1
    49     1    27    1
    50     2    32    1
    51     2    28    1
    52     4    34    1
    53     4    30    1
