@<TRIPOS>MOLECULE
*****
 50 53 0 0 0
SMALL
GASTEIGER

@<TRIPOS>ATOM
     1 C         -0.374491   -1.604343   1.4341 C.3        1 UNL1     0.1889
     2 C         -0.377691   -1.029974   -0.008131 C.3        1 UNL1     0.1342
     3 C         -1.74626   -1.056357   -0.705831 C.3        1 UNL1     0.1174
     4 C         -2.58441   -2.27851   -0.322469 C.3        1 UNL1     0.1456
     5 C         -2.59689   -2.532904   1.195916 C.3        1 UNL1     0.2326
     6 O         -1.262442   -2.686173   1.674063 O.3        1 UNL1     -0.3076
     7 O         -3.353997   -1.556851   1.934448 O.3        1 UNL1     -0.4605
     8 C         -3.981871   -2.015644   3.07848 C.ar        1 UNL1     0.1310
     9 C         -4.969786   -3.005426   3.119176 C.ar        1 UNL1     0.0226
     10 C         -5.53449   -3.414864   4.333002 C.ar        1 UNL1     0.1343
     11 C         -5.107525   -2.860739   5.539023 C.ar        1 UNL1     0.1007
     12 C         -4.150997   -1.842479   5.507627 C.ar        1 UNL1     0.1389
     13 C         -3.585245   -1.429105   4.286776 C.ar        1 UNL1     0.0229
     14 C         -5.609577   -3.315064   6.856478 C.2        1 UNL1     0.1740
     15 C         -4.883165   -2.770388   8.051134 C.3        1 UNL1     0.0520
     16 C         -4.568397   -1.302847   7.795786 C.3        1 UNL1     0.1322
     17 O         -3.737147   -1.153087   6.623751 O.3        1 UNL1     -0.4828
     18 C         -5.800561   -0.395148   7.819795 C.ar        1 UNL1     -0.0067
     19 C         -5.630573   1.004239   7.787644 C.ar        1 UNL1     -0.0516
     20 C         -6.73366   1.86359   7.856036 C.ar        1 UNL1     -0.0198
     21 C         -8.00847   1.337244   7.963957 C.ar        1 UNL1     0.1169
     22 C         -8.210431   -0.03682   7.964292 C.ar        1 UNL1     -0.0198
     23 C         -7.108885   -0.896521   7.877318 C.ar        1 UNL1     -0.0516
     24 O         -9.055501   2.205357   8.066449 O.3        1 UNL1     -0.5068
     25 O         -6.50614   -4.143952   6.989154 O.2        1 UNL1     -0.2917
     26 O         -6.494454   -4.383991   4.303866 O.3        1 UNL1     -0.5058
     27 O         -0.478341   -0.608662   2.439396 O.3        1 UNL1     -0.3648
     28 O         0.527792   -1.809352   -0.811484 O.3        1 UNL1     -0.3841
     29 O         -2.441228   0.176174   -0.50578 O.3        1 UNL1     -0.3863
     30 O         -2.050249   -3.445752   -0.984215 O.3        1 UNL1     -0.3829
     31 H         0.615529   -2.045622   1.592885 H        1 UNL1     0.0937
     32 H         0.0   0.0   0.0 H        1 UNL1     0.0671
     33 H         -1.569482   -1.119209   -1.78866 H        1 UNL1     0.0649
     34 H         -3.613547   -2.15218   -0.676471 H        1 UNL1     0.0683
     35 H         -3.085904   -3.509964   1.296412 H        1 UNL1     0.1085
     36 H         -5.30446   -3.514263   2.221848 H        1 UNL1     0.0691
     37 H         -2.843145   -0.633633   4.289237 H        1 UNL1     0.0691
     38 H         -3.965599   -3.355239   8.175827 H        1 UNL1     0.0385
     39 H         -5.502812   -2.911811   8.943218 H        1 UNL1     0.0385
     40 H         -3.937189   -0.957968   8.62594 H        1 UNL1     0.0789
     41 H         -4.639545   1.442275   7.712559 H        1 UNL1     0.0623
     42 H         -6.588691   2.940998   7.842322 H        1 UNL1     0.0654
     43 H         -9.205576   -0.459713   8.033277 H        1 UNL1     0.0654
     44 H         -7.304318   -1.964507   7.869659 H        1 UNL1     0.0623
     45 H         -8.713905   3.064076   8.364159 H        1 UNL1     0.2921
     46 H         -6.320754   -5.032574   5.00428 H        1 UNL1     0.2922
     47 H         -1.408002   -0.425202   2.634161 H        1 UNL1     0.2126
     48 H         0.40537   -1.516313   -1.734995 H        1 UNL1     0.2101
     49 H         -3.077641   0.082026   0.220793 H        1 UNL1     0.2100
     50 H         -2.344579   -3.4239   -1.918348 H        1 UNL1     0.2102
@<TRIPOS>BOND
     1     1     2    1
     2     1     6    1
     3     2     3    1
     4     3     4    1
     5     3    29    1
     6     3    33    1
     7     4     5    1
     8     5     6    1
     9     5     7    1
    10     5    35    1
    11     7     8    1
    12     8     9   ar
    13     8    13   ar
    14     9    10   ar
    15     9    36    1
    16    10    11   ar
    17    10    26    1
    18    11    12   ar
    19    11    14    1
    20    12    13   ar
    21    12    17    1
    22    13    37    1
    23    14    15    1
    24    14    25    2
    25    15    16    1
    26    15    38    1
    27    15    39    1
    28    16    17    1
    29    16    18    1
    30    16    40    1
    31    18    19   ar
    32    18    23   ar
    33    19    20   ar
    34    19    41    1
    35    20    21   ar
    36    20    42    1
    37    21    22   ar
    38    21    24    1
    39    22    23   ar
    40    22    43    1
    41    23    44    1
    42    24    45    1
    43    26    46    1
    44    27    47    1
    45    28    48    1
    46    29    49    1
    47    30    50    1
    48     1    31    1
    49     1    27    1
    50     2    32    1
    51     2    28    1
    52     4    34    1
    53     4    30    1
