@<TRIPOS>MOLECULE
*****
 50 53 0 0 0
SMALL
GASTEIGER

@<TRIPOS>ATOM
     1 C         0.310478   -0.604256   2.075881 C.3        1 UNL1     0.1889
     2 C         -0.57919   -0.456295   0.812339 C.3        1 UNL1     0.1342
     3 C         -1.866916   0.353978   1.026078 C.3        1 UNL1     0.1174
     4 C         -2.470331   0.153065   2.418429 C.3        1 UNL1     0.1456
     5 C         -1.41788   0.252346   3.537739 C.3        1 UNL1     0.2326
     6 O         -0.378943   -0.698076   3.313739 O.3        1 UNL1     -0.3076
     7 O         -0.926742   1.58906   3.745825 O.3        1 UNL1     -0.4605
     8 C         -1.815672   2.611709   3.467399 C.ar        1 UNL1     0.1310
     9 C         -2.546611   2.749875   2.28252 C.ar        1 UNL1     0.0226
     10 C         -3.437503   3.814544   2.101706 C.ar        1 UNL1     0.1343
     11 C         -3.636994   4.754584   3.111839 C.ar        1 UNL1     0.1007
     12 C         -2.882394   4.650249   4.283367 C.ar        1 UNL1     0.1389
     13 C         -1.984718   3.581126   4.46388 C.ar        1 UNL1     0.0229
     14 C         -4.627146   5.851306   3.007177 C.2        1 UNL1     0.1740
     15 C         -4.868743   6.630312   4.266673 C.3        1 UNL1     0.0520
     16 C         -3.532662   6.84439   4.964539 C.3        1 UNL1     0.1322
     17 O         -2.919349   5.579353   5.297105 O.3        1 UNL1     -0.4828
     18 C         -2.60898   7.825977   4.239266 C.ar        1 UNL1     -0.0067
     19 C         -2.295124   7.607694   2.882041 C.ar        1 UNL1     -0.0516
     20 C         -1.416225   8.459239   2.202062 C.ar        1 UNL1     -0.0198
     21 C         -0.840189   9.525858   2.868644 C.ar        1 UNL1     0.1169
     22 C         -1.15564   9.786251   4.195869 C.ar        1 UNL1     -0.0198
     23 C         -2.048815   8.945641   4.870902 C.ar        1 UNL1     -0.0516
     24 O         0.04026   10.311363   2.184397 O.3        1 UNL1     -0.5068
     25 O         -5.28024   6.077972   1.992004 O.2        1 UNL1     -0.2917
     26 O         -4.11905   3.892586   0.922304 O.3        1 UNL1     -0.5058
     27 O         1.368607   0.338904   2.135882 O.3        1 UNL1     -0.3648
     28 O         -0.968196   -1.770615   0.371948 O.3        1 UNL1     -0.3841
     29 O         -1.658305   1.731169   0.70677 O.3        1 UNL1     -0.3863
     30 O         -3.093462   -1.148253   2.481414 O.3        1 UNL1     -0.3829
     31 H         0.816477   -1.572126   1.990606 H        1 UNL1     0.0937
     32 H         0.0   0.0   0.0 H        1 UNL1     0.0671
     33 H         -2.61227   -0.003736   0.302055 H        1 UNL1     0.0649
     34 H         -3.257512   0.894302   2.59539 H        1 UNL1     0.0683
     35 H         -1.957027   -0.070512   4.437162 H        1 UNL1     0.1085
     36 H         -2.478021   2.021469   1.481995 H        1 UNL1     0.0691
     37 H         -1.408272   3.523142   5.384663 H        1 UNL1     0.0691
     38 H         -5.551696   6.045426   4.89198 H        1 UNL1     0.0385
     39 H         -5.360629   7.576079   4.014977 H        1 UNL1     0.0385
     40 H         -3.745955   7.309972   5.936269 H        1 UNL1     0.0789
     41 H         -2.727048   6.77211   2.339002 H        1 UNL1     0.0623
     42 H         -1.17288   8.273444   1.158858 H        1 UNL1     0.0654
     43 H         -0.721915   10.627529   4.723166 H        1 UNL1     0.0654
     44 H         -2.280775   9.184962   5.904229 H        1 UNL1     0.0623
     45 H         -0.355792   10.542275   1.328512 H        1 UNL1     0.2921
     46 H         -4.293215   2.997983   0.589491 H        1 UNL1     0.2922
     47 H         1.584439   0.541812   3.056808 H        1 UNL1     0.2126
     48 H         -1.70509   -2.05184   0.947823 H        1 UNL1     0.2101
     49 H         -1.870688   1.889307   -0.226868 H        1 UNL1     0.2100
     50 H         -2.39775   -1.80595   2.689098 H        1 UNL1     0.2102
@<TRIPOS>BOND
     1     1     2    1
     2     1     6    1
     3     2     3    1
     4     3     4    1
     5     3    29    1
     6     3    33    1
     7     4     5    1
     8     5     6    1
     9     5     7    1
    10     5    35    1
    11     7     8    1
    12     8     9   ar
    13     8    13   ar
    14     9    10   ar
    15     9    36    1
    16    10    11   ar
    17    10    26    1
    18    11    12   ar
    19    11    14    1
    20    12    13   ar
    21    12    17    1
    22    13    37    1
    23    14    15    1
    24    14    25    2
    25    15    16    1
    26    15    38    1
    27    15    39    1
    28    16    17    1
    29    16    18    1
    30    16    40    1
    31    18    19   ar
    32    18    23   ar
    33    19    20   ar
    34    19    41    1
    35    20    21   ar
    36    20    42    1
    37    21    22   ar
    38    21    24    1
    39    22    23   ar
    40    22    43    1
    41    23    44    1
    42    24    45    1
    43    26    46    1
    44    27    47    1
    45    28    48    1
    46    29    49    1
    47    30    50    1
    48     1    31    1
    49     1    27    1
    50     2    32    1
    51     2    28    1
    52     4    34    1
    53     4    30    1
