@<TRIPOS>MOLECULE
*****
 50 53 0 0 0
SMALL
GASTEIGER

@<TRIPOS>ATOM
     1 C         0.668661   -1.853576   0.942313 C.3        1 UNL1     0.1889
     2 C         -0.0884   -0.498642   0.973193 C.3        1 UNL1     0.1342
     3 C         0.371696   0.468019   2.075166 C.3        1 UNL1     0.1174
     4 C         0.78952   -0.251965   3.359752 C.3        1 UNL1     0.1456
     5 C         1.712603   -1.454053   3.089074 C.3        1 UNL1     0.2326
     6 O         1.072139   -2.36878   2.202537 O.3        1 UNL1     -0.3076
     7 O         3.032597   -1.07723   2.656708 O.3        1 UNL1     -0.4605
     8 C         4.080966   -1.557904   3.420517 C.ar        1 UNL1     0.1310
     9 C         4.510793   -1.018374   4.637668 C.ar        1 UNL1     0.0226
     10 C         5.574543   -1.588884   5.346792 C.ar        1 UNL1     0.1343
     11 C         6.21947   -2.72814   4.867202 C.ar        1 UNL1     0.1007
     12 C         5.826074   -3.251688   3.632731 C.ar        1 UNL1     0.1389
     13 C         4.758186   -2.676289   2.918615 C.ar        1 UNL1     0.0229
     14 C         7.293262   -3.421087   5.616167 C.2        1 UNL1     0.1740
     15 C         7.71774   -4.74958   5.062566 C.3        1 UNL1     0.0520
     16 C         7.761626   -4.647001   3.544176 C.3        1 UNL1     0.1322
     17 O         6.461593   -4.304083   3.015601 O.3        1 UNL1     -0.4828
     18 C         8.908882   -3.78117   3.017999 C.ar        1 UNL1     -0.0067
     19 C         9.4891   -2.812494   3.862527 C.ar        1 UNL1     -0.0516
     20 C         10.507776   -1.972007   3.397937 C.ar        1 UNL1     -0.0198
     21 C         10.948937   -2.085042   2.091634 C.ar        1 UNL1     0.1169
     22 C         10.420396   -3.05169   1.246012 C.ar        1 UNL1     -0.0198
     23 C         9.414544   -3.904638   1.715902 C.ar        1 UNL1     -0.0516
     24 O         11.916191   -1.224016   1.663318 O.3        1 UNL1     -0.5068
     25 O         7.765795   -2.997544   6.667742 O.2        1 UNL1     -0.2917
     26 O         5.945507   -1.013781   6.527142 O.3        1 UNL1     -0.5058
     27 O         1.727782   -1.888042   -0.001011 O.3        1 UNL1     -0.3648
     28 O         -1.486836   -0.762389   1.191179 O.3        1 UNL1     -0.3841
     29 O         1.379939   1.353741   1.584172 O.3        1 UNL1     -0.3863
     30 O         -0.391819   -0.719368   4.046529 O.3        1 UNL1     -0.3829
     31 H         -0.04316   -2.601367   0.575982 H        1 UNL1     0.0937
     32 H         0.0   0.0   0.0 H        1 UNL1     0.0671
     33 H         -0.480779   1.111332   2.334309 H        1 UNL1     0.0649
     34 H         1.295824   0.448373   4.033239 H        1 UNL1     0.0683
     35 H         1.788493   -1.953845   4.062895 H        1 UNL1     0.1085
     36 H         4.014551   -0.167333   5.091092 H        1 UNL1     0.0691
     37 H         4.47198   -3.102113   1.959316 H        1 UNL1     0.0691
     38 H         6.9826   -5.493757   5.387063 H        1 UNL1     0.0385
     39 H         8.690033   -5.021389   5.48747 H        1 UNL1     0.0385
     40 H         7.957934   -5.65604   3.157106 H        1 UNL1     0.0789
     41 H         9.154044   -2.697758   4.889281 H        1 UNL1     0.0623
     42 H         10.938924   -1.220994   4.055282 H        1 UNL1     0.0654
     43 H         10.769017   -3.158876   0.225775 H        1 UNL1     0.0654
     44 H         9.031803   -4.655321   1.03119 H        1 UNL1     0.0623
     45 H         12.4512   -0.958416   2.428785 H        1 UNL1     0.2921
     46 H         5.943892   -0.048275   6.431188 H        1 UNL1     0.2922
     47 H         1.642762   -1.155217   -0.62679 H        1 UNL1     0.2126
     48 H         -1.7312   -1.491248   0.588865 H        1 UNL1     0.2101
     49 H         1.994968   0.868544   1.011357 H        1 UNL1     0.2100
     50 H         -0.686566   -0.010989   4.655657 H        1 UNL1     0.2102
@<TRIPOS>BOND
     1     1     2    1
     2     1     6    1
     3     2     3    1
     4     3     4    1
     5     3    29    1
     6     3    33    1
     7     4     5    1
     8     5     6    1
     9     5     7    1
    10     5    35    1
    11     7     8    1
    12     8     9   ar
    13     8    13   ar
    14     9    10   ar
    15     9    36    1
    16    10    11   ar
    17    10    26    1
    18    11    12   ar
    19    11    14    1
    20    12    13   ar
    21    12    17    1
    22    13    37    1
    23    14    15    1
    24    14    25    2
    25    15    16    1
    26    15    38    1
    27    15    39    1
    28    16    17    1
    29    16    18    1
    30    16    40    1
    31    18    19   ar
    32    18    23   ar
    33    19    20   ar
    34    19    41    1
    35    20    21   ar
    36    20    42    1
    37    21    22   ar
    38    21    24    1
    39    22    23   ar
    40    22    43    1
    41    23    44    1
    42    24    45    1
    43    26    46    1
    44    27    47    1
    45    28    48    1
    46    29    49    1
    47    30    50    1
    48     1    31    1
    49     1    27    1
    50     2    32    1
    51     2    28    1
    52     4    34    1
    53     4    30    1
