@<TRIPOS>MOLECULE
*****
 50 53 0 0 0
SMALL
GASTEIGER

@<TRIPOS>ATOM
     1 C         -0.342688   -1.334628   1.694738 C.3        1 UNL1     0.1889
     2 C         -0.468142   -0.973794   0.190079 C.3        1 UNL1     0.1342
     3 C         -1.907787   -0.950872   -0.345982 C.3        1 UNL1     0.1174
     4 C         -2.801179   -2.008446   0.307091 C.3        1 UNL1     0.1456
     5 C         -2.652856   -2.041934   1.839163 C.3        1 UNL1     0.2326
     6 O         -1.289886   -2.269098   2.190699 O.3        1 UNL1     -0.3076
     7 O         -3.22289   -0.89491   2.495453 O.3        1 UNL1     -0.4605
     8 C         -3.73661   -1.113714   3.761053 C.ar        1 UNL1     0.1310
     9 C         -4.559663   -2.183994   4.127638 C.ar        1 UNL1     0.0226
     10 C         -5.016328   -2.328283   5.443138 C.ar        1 UNL1     0.1343
     11 C         -4.641177   -1.417972   6.430273 C.ar        1 UNL1     0.1007
     12 C         -3.853188   -0.322418   6.06748 C.ar        1 UNL1     0.1389
     13 C         -3.396313   -0.176109   4.744117 C.ar        1 UNL1     0.0229
     14 C         -5.025809   -1.568626   7.852776 C.2        1 UNL1     0.1740
     15 C         -4.353805   -0.628706   8.810121 C.3        1 UNL1     0.0520
     16 C         -4.275528   0.746045   8.160591 C.3        1 UNL1     0.1322
     17 O         -3.514537   0.690997   6.933835 O.3        1 UNL1     -0.4828
     18 C         -5.630678   1.446517   8.035563 C.ar        1 UNL1     -0.0067
     19 C         -6.002736   2.01985   6.802244 C.ar        1 UNL1     -0.0516
     20 C         -7.213933   2.708742   6.666631 C.ar        1 UNL1     -0.0198
     21 C         -8.056498   2.837286   7.756305 C.ar        1 UNL1     0.1169
     22 C         -7.733227   2.254924   8.974988 C.ar        1 UNL1     -0.0198
     23 C         -6.530641   1.550158   9.105946 C.ar        1 UNL1     -0.0516
     24 O         -9.20993   3.547515   7.596405 O.3        1 UNL1     -0.5068
     25 O         -5.780336   -2.448189   8.259648 O.2        1 UNL1     -0.2917
     26 O         -5.817147   -3.393658   5.735116 O.3        1 UNL1     -0.5058
     27 O         -0.232922   -0.201027   2.540722 O.3        1 UNL1     -0.3648
     28 O         0.258623   -1.952531   -0.575814 O.3        1 UNL1     -0.3841
     29 O         -2.458231   0.365384   -0.264654 O.3        1 UNL1     -0.3863
     30 O         -2.459637   -3.308603   -0.220763 O.3        1 UNL1     -0.3829
     31 H         0.614927   -1.853282   1.813266 H        1 UNL1     0.0937
     32 H         0.0   0.0   0.0 H        1 UNL1     0.0671
     33 H         -1.869876   -1.185487   -1.41894 H        1 UNL1     0.0649
     34 H         -3.849787   -1.823165   0.049227 H        1 UNL1     0.0683
     35 H         -3.213064   -2.936217   2.139669 H        1 UNL1     0.1085
     36 H         -4.840805   -2.955719   3.419457 H        1 UNL1     0.0691
     37 H         -2.784958   0.686247   4.487057 H        1 UNL1     0.0691
     38 H         -3.354074   -1.025345   9.016867 H        1 UNL1     0.0385
     39 H         -4.915939   -0.61115   9.750055 H        1 UNL1     0.0385
     40 H         -3.678538   1.384727   8.825577 H        1 UNL1     0.0789
     41 H         -5.354566   1.940683   5.934339 H        1 UNL1     0.0623
     42 H         -7.484084   3.15665   5.713526 H        1 UNL1     0.0654
     43 H         -8.392746   2.336614   9.830717 H        1 UNL1     0.0654
     44 H         -6.314975   1.098985   10.069676 H        1 UNL1     0.0623
     45 H         -8.978107   4.457094   7.348129 H        1 UNL1     0.2921
     46 H         -5.418372   -3.911124   6.452485 H        1 UNL1     0.2922
     47 H         0.511942   0.351409   2.265311 H        1 UNL1     0.2126
     48 H         1.194138   -1.881407   -0.30473 H        1 UNL1     0.2101
     49 H         -2.015011   0.948365   -0.90143 H        1 UNL1     0.2100
     50 H         -2.696248   -3.319739   -1.171344 H        1 UNL1     0.2102
@<TRIPOS>BOND
     1     1     2    1
     2     1     6    1
     3     2     3    1
     4     3     4    1
     5     3    29    1
     6     3    33    1
     7     4     5    1
     8     5     6    1
     9     5     7    1
    10     5    35    1
    11     7     8    1
    12     8     9   ar
    13     8    13   ar
    14     9    10   ar
    15     9    36    1
    16    10    11   ar
    17    10    26    1
    18    11    12   ar
    19    11    14    1
    20    12    13   ar
    21    12    17    1
    22    13    37    1
    23    14    15    1
    24    14    25    2
    25    15    16    1
    26    15    38    1
    27    15    39    1
    28    16    17    1
    29    16    18    1
    30    16    40    1
    31    18    19   ar
    32    18    23   ar
    33    19    20   ar
    34    19    41    1
    35    20    21   ar
    36    20    42    1
    37    21    22   ar
    38    21    24    1
    39    22    23   ar
    40    22    43    1
    41    23    44    1
    42    24    45    1
    43    26    46    1
    44    27    47    1
    45    28    48    1
    46    29    49    1
    47    30    50    1
    48     1    31    1
    49     1    27    1
    50     2    32    1
    51     2    28    1
    52     4    34    1
    53     4    30    1
