@<TRIPOS>MOLECULE
*****
 50 53 0 0 0
SMALL
GASTEIGER

@<TRIPOS>ATOM
     1 C         -0.46913   -1.413021   1.598153 C.3        1 UNL1     0.1889
     2 C         0.378552   -0.956916   0.380227 C.3        1 UNL1     0.1342
     3 C         0.43641   -1.967699   -0.775383 C.3        1 UNL1     0.1174
     4 C         0.433037   -3.420667   -0.293731 C.3        1 UNL1     0.1456
     5 C         -0.6391   -3.684278   0.7793 C.3        1 UNL1     0.2326
     6 O         -0.447734   -2.803737   1.884242 O.3        1 UNL1     -0.3076
     7 O         -1.982891   -3.662427   0.264453 O.3        1 UNL1     -0.4605
     8 C         -2.885623   -4.503168   0.89036 C.ar        1 UNL1     0.1310
     9 C         -2.648603   -5.840211   1.227164 C.ar        1 UNL1     0.0226
     10 C         -3.623362   -6.606577   1.877111 C.ar        1 UNL1     0.1343
     11 C         -4.851282   -6.04697   2.227675 C.ar        1 UNL1     0.1007
     12 C         -5.114958   -4.724811   1.860041 C.ar        1 UNL1     0.1389
     13 C         -4.135665   -3.955231   1.204173 C.ar        1 UNL1     0.0229
     14 C         -5.884925   -6.785756   2.989206 C.2        1 UNL1     0.1740
     15 C         -7.045081   -5.966065   3.472624 C.3        1 UNL1     0.0520
     16 C         -7.43195   -4.984383   2.375086 C.3        1 UNL1     0.1322
     17 O         -6.328142   -4.10763   2.058886 O.3        1 UNL1     -0.4828
     18 C         -8.085247   -5.645702   1.159116 C.ar        1 UNL1     -0.0067
     19 C         -9.452171   -5.41844   0.898187 C.ar        1 UNL1     -0.0516
     20 C         -10.091961   -6.045238   -0.177804 C.ar        1 UNL1     -0.0198
     21 C         -9.379236   -6.905297   -0.993983 C.ar        1 UNL1     0.1169
     22 C         -8.023997   -7.123162   -0.782561 C.ar        1 UNL1     -0.0198
     23 C         -7.3796   -6.482137   0.282285 C.ar        1 UNL1     -0.0516
     24 O         -10.044905   -7.526984   -2.009261 O.3        1 UNL1     -0.5068
     25 O         -5.784886   -7.972698   3.288616 O.2        1 UNL1     -0.2917
     26 O         -3.32976   -7.904887   2.176732 O.3        1 UNL1     -0.5058
     27 O         -1.791928   -0.900257   1.590115 O.3        1 UNL1     -0.3648
     28 O         1.730314   -0.734568   0.822952 O.3        1 UNL1     -0.3841
     29 O         -0.58843   -1.700279   -1.734718 O.3        1 UNL1     -0.3863
     30 O         1.729277   -3.740178   0.257054 O.3        1 UNL1     -0.3829
     31 H         -0.010516   -0.962092   2.484954 H        1 UNL1     0.0937
     32 H         0.0   0.0   -0.0 H        1 UNL1     0.0671
     33 H         1.384034   -1.812233   -1.309759 H        1 UNL1     0.0649
     34 H         0.269825   -4.095301   -1.141452 H        1 UNL1     0.0683
     35 H         -0.413196   -4.697096   1.135734 H        1 UNL1     0.1085
     36 H         -1.694202   -6.316828   1.032035 H        1 UNL1     0.0691
     37 H         -4.36613   -2.928594   0.927775 H        1 UNL1     0.0691
     38 H         -6.724385   -5.439906   4.378074 H        1 UNL1     0.0385
     39 H         -7.870449   -6.634766   3.739803 H        1 UNL1     0.0385
     40 H         -8.200263   -4.319169   2.791867 H        1 UNL1     0.0789
     41 H         -10.035827   -4.754885   1.529607 H        1 UNL1     0.0623
     42 H         -11.149297   -5.871152   -0.361507 H        1 UNL1     0.0654
     43 H         -7.452818   -7.782997   -1.424655 H        1 UNL1     0.0654
     44 H         -6.317584   -6.667143   0.411665 H        1 UNL1     0.0623
     45 H         -10.859238   -7.914826   -1.649876 H        1 UNL1     0.2921
     46 H         -3.625851   -8.103586   3.079096 H        1 UNL1     0.2922
     47 H         -1.777826   0.060767   1.480141 H        1 UNL1     0.2126
     48 H         1.720097   0.086789   1.351158 H        1 UNL1     0.2101
     49 H         -0.189611   -1.498833   -2.596203 H        1 UNL1     0.2100
     50 H         1.621009   -3.881623   1.220373 H        1 UNL1     0.2102
@<TRIPOS>BOND
     1     1     2    1
     2     1     6    1
     3     2     3    1
     4     3     4    1
     5     3    29    1
     6     3    33    1
     7     4     5    1
     8     5     6    1
     9     5     7    1
    10     5    35    1
    11     7     8    1
    12     8     9   ar
    13     8    13   ar
    14     9    10   ar
    15     9    36    1
    16    10    11   ar
    17    10    26    1
    18    11    12   ar
    19    11    14    1
    20    12    13   ar
    21    12    17    1
    22    13    37    1
    23    14    15    1
    24    14    25    2
    25    15    16    1
    26    15    38    1
    27    15    39    1
    28    16    17    1
    29    16    18    1
    30    16    40    1
    31    18    19   ar
    32    18    23   ar
    33    19    20   ar
    34    19    41    1
    35    20    21   ar
    36    20    42    1
    37    21    22   ar
    38    21    24    1
    39    22    23   ar
    40    22    43    1
    41    23    44    1
    42    24    45    1
    43    26    46    1
    44    27    47    1
    45    28    48    1
    46    29    49    1
    47    30    50    1
    48     1    31    1
    49     1    27    1
    50     2    32    1
    51     2    28    1
    52     4    34    1
    53     4    30    1
