@<TRIPOS>MOLECULE
*****
 50 53 0 0 0
SMALL
GASTEIGER

@<TRIPOS>ATOM
     1 C         -0.157109   0.907143   1.98071 C.3        1 UNL1     0.1889
     2 C         0.354548   -0.198849   1.018978 C.3        1 UNL1     0.1342
     3 C         -0.041869   -1.628743   1.417376 C.3        1 UNL1     0.1174
     4 C         -0.080569   -1.833177   2.933894 C.3        1 UNL1     0.1456
     5 C         -0.824123   -0.699519   3.663489 C.3        1 UNL1     0.2326
     6 O         -0.220818   0.554928   3.354857 O.3        1 UNL1     -0.3076
     7 O         -2.24643   -0.712639   3.443961 O.3        1 UNL1     -0.4605
     8 C         -3.025574   -0.252343   4.490188 C.ar        1 UNL1     0.1310
     9 C         -2.865792   -0.603332   5.835021 C.ar        1 UNL1     0.0226
     10 C         -3.697384   -0.068722   6.826257 C.ar        1 UNL1     0.1343
     11 C         -4.694648   0.849106   6.499305 C.ar        1 UNL1     0.1007
     12 C         -4.890444   1.175898   5.154815 C.ar        1 UNL1     0.1389
     13 C         -4.055862   0.636186   4.158012 C.ar        1 UNL1     0.0229
     14 C         -5.546655   1.508725   7.51574 C.2        1 UNL1     0.1740
     15 C         -6.409663   2.628145   7.012088 C.3        1 UNL1     0.0520
     16 C         -6.97423   2.228486   5.655808 C.3        1 UNL1     0.1322
     17 O         -5.910451   1.984237   4.709348 O.3        1 UNL1     -0.4828
     18 C         -8.025591   1.118517   5.72885 C.ar        1 UNL1     -0.0067
     19 C         -7.932493   0.017697   4.852641 C.ar        1 UNL1     -0.0516
     20 C         -8.903342   -0.990941   4.860734 C.ar        1 UNL1     -0.0198
     21 C         -9.973637   -0.906802   5.73321 C.ar        1 UNL1     0.1169
     22 C         -10.075065   0.147826   6.631159 C.ar        1 UNL1     -0.0198
     23 C         -9.094544   1.147131   6.635996 C.ar        1 UNL1     -0.0516
     24 O         -10.919564   -1.888343   5.686289 O.3        1 UNL1     -0.5068
     25 O         -5.509522   1.231963   8.711779 O.2        1 UNL1     -0.2917
     26 O         -3.489871   -0.452705   8.11896 O.3        1 UNL1     -0.5058
     27 O         -1.355798   1.526945   1.542785 O.3        1 UNL1     -0.3648
     28 O         1.792926   -0.146145   0.987363 O.3        1 UNL1     -0.3841
     29 O         -1.258889   -2.014953   0.775633 O.3        1 UNL1     -0.3863
     30 O         1.271301   -1.900841   3.437442 O.3        1 UNL1     -0.3829
     31 H         0.586558   1.711171   1.956673 H        1 UNL1     0.0937
     32 H         0.0   0.0   0.0 H        1 UNL1     0.0671
     33 H         0.724608   -2.311109   1.024171 H        1 UNL1     0.0649
     34 H         -0.558907   -2.790134   3.170172 H        1 UNL1     0.0683
     35 H         -0.628177   -0.895058   4.725209 H        1 UNL1     0.1085
     36 H         -2.073434   -1.268433   6.160491 H        1 UNL1     0.0691
     37 H         -4.229715   0.905684   3.118474 H        1 UNL1     0.0691
     38 H         -5.780142   3.520645   6.9304 H        1 UNL1     0.0385
     39 H         -7.197832   2.831422   7.745059 H        1 UNL1     0.0385
     40 H         -7.503035   3.103681   5.254663 H        1 UNL1     0.0789
     41 H         -7.106925   -0.066845   4.151969 H        1 UNL1     0.0623
     42 H         -8.826746   -1.828661   4.171989 H        1 UNL1     0.0654
     43 H         -10.901066   0.215773   7.329025 H        1 UNL1     0.0654
     44 H         -9.199829   1.950966   7.358221 H        1 UNL1     0.0623
     45 H         -11.318077   -1.888148   4.800906 H        1 UNL1     0.2921
     46 H         -3.335841   0.3318   8.668722 H        1 UNL1     0.2922
     47 H         -1.241828   1.883461   0.650727 H        1 UNL1     0.2126
     48 H         2.032879   0.72946   0.627544 H        1 UNL1     0.2101
     49 H         -1.107624   -2.131721   -0.175828 H        1 UNL1     0.2100
     50 H         1.68724   -2.7111   3.076625 H        1 UNL1     0.2102
@<TRIPOS>BOND
     1     1     2    1
     2     1     6    1
     3     2     3    1
     4     3     4    1
     5     3    29    1
     6     3    33    1
     7     4     5    1
     8     5     6    1
     9     5     7    1
    10     5    35    1
    11     7     8    1
    12     8     9   ar
    13     8    13   ar
    14     9    10   ar
    15     9    36    1
    16    10    11   ar
    17    10    26    1
    18    11    12   ar
    19    11    14    1
    20    12    13   ar
    21    12    17    1
    22    13    37    1
    23    14    15    1
    24    14    25    2
    25    15    16    1
    26    15    38    1
    27    15    39    1
    28    16    17    1
    29    16    18    1
    30    16    40    1
    31    18    19   ar
    32    18    23   ar
    33    19    20   ar
    34    19    41    1
    35    20    21   ar
    36    20    42    1
    37    21    22   ar
    38    21    24    1
    39    22    23   ar
    40    22    43    1
    41    23    44    1
    42    24    45    1
    43    26    46    1
    44    27    47    1
    45    28    48    1
    46    29    49    1
    47    30    50    1
    48     1    31    1
    49     1    27    1
    50     2    32    1
    51     2    28    1
    52     4    34    1
    53     4    30    1
