@<TRIPOS>MOLECULE
*****
 50 53 0 0 0
SMALL
GASTEIGER

@<TRIPOS>ATOM
     1 C         1.897224   0.974685   0.470464 C.3        1 UNL1     0.1889
     2 C         0.84786   -0.150009   0.679847 C.3        1 UNL1     0.1342
     3 C         0.321114   -0.275981   2.117601 C.3        1 UNL1     0.1174
     4 C         1.387275   0.038541   3.169976 C.3        1 UNL1     0.1456
     5 C         2.171585   1.324088   2.849678 C.3        1 UNL1     0.2326
     6 O         2.773075   1.218245   1.561316 O.3        1 UNL1     -0.3076
     7 O         1.395906   2.525038   3.015095 O.3        1 UNL1     -0.4605
     8 C         1.556511   3.489969   2.037014 C.ar        1 UNL1     0.1310
     9 C         2.575313   3.510418   1.078408 C.ar        1 UNL1     0.0226
     10 C         2.642978   4.524577   0.115702 C.ar        1 UNL1     0.1343
     11 C         1.678813   5.530777   0.073422 C.ar        1 UNL1     0.1007
     12 C         0.68012   5.543897   1.050777 C.ar        1 UNL1     0.1389
     13 C         0.613823   4.525527   2.020292 C.ar        1 UNL1     0.0229
     14 C         1.654126   6.579005   -0.972888 C.2        1 UNL1     0.1740
     15 C         0.427002   7.442178   -0.998362 C.3        1 UNL1     0.0520
     16 C         0.030222   7.757995   0.437181 C.3        1 UNL1     0.1322
     17 O         -0.255378   6.545482   1.168833 O.3        1 UNL1     -0.4828
     18 C         0.99179   8.714979   1.145907 C.ar        1 UNL1     -0.0067
     19 C         2.25233   8.24405   1.56719 C.ar        1 UNL1     -0.0516
     20 C         3.136508   9.079693   2.259933 C.ar        1 UNL1     -0.0198
     21 C         2.76977   10.383155   2.543334 C.ar        1 UNL1     0.1169
     22 C         1.548935   10.885781   2.112323 C.ar        1 UNL1     -0.0198
     23 C         0.672159   10.05584   1.403439 C.ar        1 UNL1     -0.0516
     24 O         3.641295   11.15604   3.252907 O.3        1 UNL1     -0.5068
     25 O         2.52884   6.703432   -1.826045 O.2        1 UNL1     -0.2917
     26 O         3.662397   4.487359   -0.790381 O.3        1 UNL1     -0.5058
     27 O         1.34231   2.178747   -0.0346 O.3        1 UNL1     -0.3648
     28 O         1.453727   -1.409304   0.333716 O.3        1 UNL1     -0.3841
     29 O         -0.870757   0.493301   2.290171 O.3        1 UNL1     -0.3863
     30 O         2.316125   -1.064584   3.247712 O.3        1 UNL1     -0.3829
     31 H         2.568088   0.632436   -0.325077 H        1 UNL1     0.0937
     32 H         -0.0   0.0   0.0 H        1 UNL1     0.0671
     33 H         0.019033   -1.321015   2.273711 H        1 UNL1     0.0649
     34 H         0.921454   0.135505   4.156895 H        1 UNL1     0.0683
     35 H         2.987406   1.325955   3.583376 H        1 UNL1     0.1085
     36 H         3.32239   2.726212   1.023473 H        1 UNL1     0.0691
     37 H         -0.172876   4.559157   2.770935 H        1 UNL1     0.0691
     38 H         -0.361508   6.881757   -1.511886 H        1 UNL1     0.0385
     39 H         0.636758   8.347211   -1.578617 H        1 UNL1     0.0385
     40 H         -0.931073   8.288006   0.398186 H        1 UNL1     0.0789
     41 H         2.560007   7.222237   1.364994 H        1 UNL1     0.0623
     42 H         4.100838   8.701286   2.589915 H        1 UNL1     0.0654
     43 H         1.25795   11.909432   2.315734 H        1 UNL1     0.0654
     44 H         -0.268874   10.484734   1.072755 H        1 UNL1     0.0623
     45 H         3.279297   11.287156   4.144244 H        1 UNL1     0.2921
     46 H         3.528879   5.180352   -1.456223 H        1 UNL1     0.2922
     47 H         0.85813   2.006326   -0.854174 H        1 UNL1     0.2126
     48 H         2.367205   -1.384254   0.678193 H        1 UNL1     0.2101
     49 H         -1.466572   0.04404   2.910624 H        1 UNL1     0.2100
     50 H         2.06267   -1.618666   4.014827 H        1 UNL1     0.2102
@<TRIPOS>BOND
     1     1     2    1
     2     1     6    1
     3     2     3    1
     4     3     4    1
     5     3    29    1
     6     3    33    1
     7     4     5    1
     8     5     6    1
     9     5     7    1
    10     5    35    1
    11     7     8    1
    12     8     9   ar
    13     8    13   ar
    14     9    10   ar
    15     9    36    1
    16    10    11   ar
    17    10    26    1
    18    11    12   ar
    19    11    14    1
    20    12    13   ar
    21    12    17    1
    22    13    37    1
    23    14    15    1
    24    14    25    2
    25    15    16    1
    26    15    38    1
    27    15    39    1
    28    16    17    1
    29    16    18    1
    30    16    40    1
    31    18    19   ar
    32    18    23   ar
    33    19    20   ar
    34    19    41    1
    35    20    21   ar
    36    20    42    1
    37    21    22   ar
    38    21    24    1
    39    22    23   ar
    40    22    43    1
    41    23    44    1
    42    24    45    1
    43    26    46    1
    44    27    47    1
    45    28    48    1
    46    29    49    1
    47    30    50    1
    48     1    31    1
    49     1    27    1
    50     2    32    1
    51     2    28    1
    52     4    34    1
    53     4    30    1
