@<TRIPOS>MOLECULE
*****
 50 53 0 0 0
SMALL
GASTEIGER

@<TRIPOS>ATOM
     1 C         -0.293313   -0.080924   2.16292 C.3        1 UNL1     0.1889
     2 C         -0.799844   0.202369   0.723089 C.3        1 UNL1     0.1342
     3 C         -1.329849   1.626831   0.498435 C.3        1 UNL1     0.1174
     4 C         -2.03811   2.1976   1.729575 C.3        1 UNL1     0.1456
     5 C         -1.240381   1.97202   3.026921 C.3        1 UNL1     0.2326
     6 O         -0.990949   0.579992   3.208333 O.3        1 UNL1     -0.3076
     7 O         -0.050192   2.77637   3.115192 O.3        1 UNL1     -0.4605
     8 C         0.735023   2.576146   4.236297 C.ar        1 UNL1     0.1310
     9 C         0.485027   1.638125   5.243728 C.ar        1 UNL1     0.0226
     10 C         1.351643   1.499095   6.334393 C.ar        1 UNL1     0.1343
     11 C         2.503127   2.279093   6.432002 C.ar        1 UNL1     0.1007
     12 C         2.741849   3.24759   5.453325 C.ar        1 UNL1     0.1389
     13 C         1.868923   3.389007   4.358138 C.ar        1 UNL1     0.0229
     14 C         3.496562   2.115995   7.518574 C.2        1 UNL1     0.1740
     15 C         4.777867   2.877713   7.346557 C.3        1 UNL1     0.0520
     16 C         4.44845   4.25426   6.785701 C.3        1 UNL1     0.1322
     17 O         3.785774   4.141802   5.506919 O.3        1 UNL1     -0.4828
     18 C         3.745085   5.174941   7.785874 C.ar        1 UNL1     -0.0067
     19 C         4.458061   5.65812   8.902305 C.ar        1 UNL1     -0.0516
     20 C         3.831679   6.463365   9.861049 C.ar        1 UNL1     -0.0198
     21 C         2.493875   6.785716   9.718929 C.ar        1 UNL1     0.1169
     22 C         1.773931   6.3527   8.613029 C.ar        1 UNL1     -0.0198
     23 C         2.404911   5.562717   7.644604 C.ar        1 UNL1     -0.0516
     24 O         1.907931   7.5406   10.692181 O.3        1 UNL1     -0.5068
     25 O         3.341102   1.352225   8.46777 O.2        1 UNL1     -0.2917
     26 O         1.050196   0.566336   7.283433 O.3        1 UNL1     -0.5058
     27 O         1.111946   0.053204   2.304491 O.3        1 UNL1     -0.3648
     28 O         -1.877558   -0.706627   0.431604 O.3        1 UNL1     -0.3841
     29 O         -0.294443   2.481866   0.009577 O.3        1 UNL1     -0.3863
     30 O         -3.331802   1.570183   1.865215 O.3        1 UNL1     -0.3829
     31 H         -0.484   -1.141794   2.358554 H        1 UNL1     0.0937
     32 H         0.0   0.0   0.0 H        1 UNL1     0.0671
     33 H         -2.076874   1.583636   -0.30643 H        1 UNL1     0.0649
     34 H         -2.2147   3.270563   1.595536 H        1 UNL1     0.0683
     35 H         -1.933762   2.277868   3.820369 H        1 UNL1     0.1085
     36 H         -0.362964   0.963686   5.197191 H        1 UNL1     0.0691
     37 H         2.076535   4.151254   3.610227 H        1 UNL1     0.0691
     38 H         5.410098   2.310476   6.655143 H        1 UNL1     0.0385
     39 H         5.292993   2.936172   8.311443 H        1 UNL1     0.0385
     40 H         5.402899   4.747851   6.557851 H        1 UNL1     0.0789
     41 H         5.506667   5.411694   9.041406 H        1 UNL1     0.0623
     42 H         4.389094   6.819916   10.723703 H        1 UNL1     0.0654
     43 H         0.729808   6.611744   8.484133 H        1 UNL1     0.0654
     44 H         1.814939   5.250817   6.78816 H        1 UNL1     0.0623
     45 H         1.267032   8.137557   10.273124 H        1 UNL1     0.2921
     46 H         0.132706   0.272457   7.168277 H        1 UNL1     0.2922
     47 H         1.404876   0.90303   1.946933 H        1 UNL1     0.2126
     48 H         -1.839918   -0.886676   -0.52751 H        1 UNL1     0.2101
     49 H         0.292577   2.739188   0.738266 H        1 UNL1     0.2100
     50 H         -3.415543   0.896209   1.159199 H        1 UNL1     0.2102
@<TRIPOS>BOND
     1     1     2    1
     2     1     6    1
     3     2     3    1
     4     3     4    1
     5     3    29    1
     6     3    33    1
     7     4     5    1
     8     5     6    1
     9     5     7    1
    10     5    35    1
    11     7     8    1
    12     8     9   ar
    13     8    13   ar
    14     9    10   ar
    15     9    36    1
    16    10    11   ar
    17    10    26    1
    18    11    12   ar
    19    11    14    1
    20    12    13   ar
    21    12    17    1
    22    13    37    1
    23    14    15    1
    24    14    25    2
    25    15    16    1
    26    15    38    1
    27    15    39    1
    28    16    17    1
    29    16    18    1
    30    16    40    1
    31    18    19   ar
    32    18    23   ar
    33    19    20   ar
    34    19    41    1
    35    20    21   ar
    36    20    42    1
    37    21    22   ar
    38    21    24    1
    39    22    23   ar
    40    22    43    1
    41    23    44    1
    42    24    45    1
    43    26    46    1
    44    27    47    1
    45    28    48    1
    46    29    49    1
    47    30    50    1
    48     1    31    1
    49     1    27    1
    50     2    32    1
    51     2    28    1
    52     4    34    1
    53     4    30    1
