@<TRIPOS>MOLECULE
*****
 50 53 0 0 0
SMALL
GASTEIGER

@<TRIPOS>ATOM
     1 C         -1.537186   -0.568255   1.443936 C.3        1 UNL1     0.1889
     2 C         -0.666567   0.492809   0.718602 C.3        1 UNL1     0.1342
     3 C         0.170928   1.381297   1.651156 C.3        1 UNL1     0.1174
     4 C         -0.536448   1.685885   2.974017 C.3        1 UNL1     0.1456
     5 C         -1.155019   0.430304   3.615305 C.3        1 UNL1     0.2326
     6 O         -2.064849   -0.182624   2.704593 O.3        1 UNL1     -0.3076
     7 O         -0.177347   -0.48574   4.140987 O.3        1 UNL1     -0.4605
     8 C         -0.514826   -1.11999   5.323088 C.ar        1 UNL1     0.1310
     9 C         -0.165558   -0.683141   6.605459 C.ar        1 UNL1     0.0226
     10 C         -0.570776   -1.387608   7.745384 C.ar        1 UNL1     0.1343
     11 C         -1.356004   -2.534025   7.631437 C.ar        1 UNL1     0.1007
     12 C         -1.676584   -3.00294   6.354671 C.ar        1 UNL1     0.1389
     13 C         -1.266791   -2.295894   5.208553 C.ar        1 UNL1     0.0229
     14 C         -1.88207   -3.269672   8.804566 C.2        1 UNL1     0.1740
     15 C         -2.887556   -4.341422   8.501418 C.3        1 UNL1     0.0520
     16 C         -2.440099   -5.0813   7.248294 C.3        1 UNL1     0.1322
     17 O         -2.35226   -4.178691   6.123726 O.3        1 UNL1     -0.4828
     18 C         -1.201475   -5.955643   7.458195 C.ar        1 UNL1     -0.0067
     19 C         0.062003   -5.474109   7.058242 C.ar        1 UNL1     -0.0516
     20 C         1.20818   -6.266735   7.192353 C.ar        1 UNL1     -0.0198
     21 C         1.103242   -7.54251   7.71696 C.ar        1 UNL1     0.1169
     22 C         -0.12191   -8.032112   8.150703 C.ar        1 UNL1     -0.0198
     23 C         -1.265335   -7.232761   8.033769 C.ar        1 UNL1     -0.0516
     24 O         2.235121   -8.299347   7.79725 O.3        1 UNL1     -0.5068
     25 O         -1.592844   -2.988086   9.964541 O.2        1 UNL1     -0.2917
     26 O         -0.195882   -0.909196   8.966924 O.3        1 UNL1     -0.5058
     27 O         -0.935382   -1.851858   1.498538 O.3        1 UNL1     -0.3648
     28 O         -1.536152   1.360149   -0.032564 O.3        1 UNL1     -0.3841
     29 O         1.477516   0.832761   1.835729 O.3        1 UNL1     -0.3863
     30 O         -1.584461   2.651463   2.739459 O.3        1 UNL1     -0.3829
     31 H         -2.430204   -0.715158   0.82667 H        1 UNL1     0.0937
     32 H         0.0   0.0   0.0 H        1 UNL1     0.0671
     33 H         0.327562   2.34433   1.145436 H        1 UNL1     0.0649
     34 H         0.167935   2.142083   3.678381 H        1 UNL1     0.0683
     35 H         -1.752916   0.824965   4.446353 H        1 UNL1     0.1085
     36 H         0.395826   0.231243   6.763157 H        1 UNL1     0.0691
     37 H         -1.52841   -2.682498   4.22591 H        1 UNL1     0.0691
     38 H         -3.85574   -3.853172   8.347279 H        1 UNL1     0.0385
     39 H         -2.974231   -5.00739   9.366722 H        1 UNL1     0.0385
     40 H         -3.245366   -5.778055   6.978855 H        1 UNL1     0.0789
     41 H         0.169425   -4.479599   6.635084 H        1 UNL1     0.0623
     42 H         2.174944   -5.888581   6.869276 H        1 UNL1     0.0654
     43 H         -0.21297   -9.024067   8.576901 H        1 UNL1     0.0654
     44 H         -2.204288   -7.643266   8.392514 H        1 UNL1     0.0623
     45 H         2.981865   -7.769559   7.474118 H        1 UNL1     0.2921
     46 H         0.629225   -0.406472   8.878159 H        1 UNL1     0.2922
     47 H         0.000694   -1.773214   1.729701 H        1 UNL1     0.2126
     48 H         -1.204369   2.26944   0.097216 H        1 UNL1     0.2101
     49 H         1.483932   -0.100827   1.570842 H        1 UNL1     0.2100
     50 H         -1.305815   3.224002   1.994967 H        1 UNL1     0.2102
@<TRIPOS>BOND
     1     1     2    1
     2     1     6    1
     3     2     3    1
     4     3     4    1
     5     3    29    1
     6     3    33    1
     7     4     5    1
     8     5     6    1
     9     5     7    1
    10     5    35    1
    11     7     8    1
    12     8     9   ar
    13     8    13   ar
    14     9    10   ar
    15     9    36    1
    16    10    11   ar
    17    10    26    1
    18    11    12   ar
    19    11    14    1
    20    12    13   ar
    21    12    17    1
    22    13    37    1
    23    14    15    1
    24    14    25    2
    25    15    16    1
    26    15    38    1
    27    15    39    1
    28    16    17    1
    29    16    18    1
    30    16    40    1
    31    18    19   ar
    32    18    23   ar
    33    19    20   ar
    34    19    41    1
    35    20    21   ar
    36    20    42    1
    37    21    22   ar
    38    21    24    1
    39    22    23   ar
    40    22    43    1
    41    23    44    1
    42    24    45    1
    43    26    46    1
    44    27    47    1
    45    28    48    1
    46    29    49    1
    47    30    50    1
    48     1    31    1
    49     1    27    1
    50     2    32    1
    51     2    28    1
    52     4    34    1
    53     4    30    1
