@<TRIPOS>MOLECULE
*****
 50 53 0 0 0
SMALL
GASTEIGER

@<TRIPOS>ATOM
     1 C         2.069653   0.698091   -0.002691 C.3        1 UNL1     0.1889
     2 C         0.871175   -0.027252   0.666238 C.3        1 UNL1     0.1342
     3 C         0.46919   0.531328   2.039869 C.3        1 UNL1     0.1174
     4 C         1.667706   1.027089   2.852825 C.3        1 UNL1     0.1456
     5 C         2.622561   1.903579   2.021934 C.3        1 UNL1     0.2326
     6 O         3.073162   1.181897   0.877818 O.3        1 UNL1     -0.3076
     7 O         2.078376   3.195868   1.69763 O.3        1 UNL1     -0.4605
     8 C         2.991169   4.15468   1.296364 C.ar        1 UNL1     0.1310
     9 C         4.158187   3.906953   0.56561 C.ar        1 UNL1     0.0226
     10 C         5.012783   4.950618   0.191 C.ar        1 UNL1     0.1343
     11 C         4.708484   6.271369   0.517895 C.ar        1 UNL1     0.1007
     12 C         3.56719   6.526885   1.282711 C.ar        1 UNL1     0.1389
     13 C         2.709442   5.477029   1.661525 C.ar        1 UNL1     0.0229
     14 C         5.531853   7.4206   0.075761 C.2        1 UNL1     0.1740
     15 C         4.940308   8.776974   0.324506 C.3        1 UNL1     0.0520
     16 C         4.276603   8.76923   1.694686 C.3        1 UNL1     0.1322
     17 O         3.229797   7.775245   1.751786 O.3        1 UNL1     -0.4828
     18 C         5.268179   8.71385   2.859346 C.ar        1 UNL1     -0.0067
     19 C         5.493728   9.871259   3.632486 C.ar        1 UNL1     -0.0516
     20 C         6.428651   9.868089   4.674538 C.ar        1 UNL1     -0.0198
     21 C         7.148098   8.718562   4.948055 C.ar        1 UNL1     0.1169
     22 C         6.924208   7.553482   4.226044 C.ar        1 UNL1     -0.0198
     23 C         5.976084   7.551108   3.195942 C.ar        1 UNL1     -0.0516
     24 O         8.077121   8.764103   5.945673 O.3        1 UNL1     -0.5068
     25 O         6.593868   7.298516   -0.528975 O.2        1 UNL1     -0.2917
     26 O         6.135607   4.641742   -0.519948 O.3        1 UNL1     -0.5058
     27 O         1.679191   1.684722   -0.944437 O.3        1 UNL1     -0.3648
     28 O         1.221845   -1.411108   0.852464 O.3        1 UNL1     -0.3841
     29 O         -0.555094   1.518737   1.905716 O.3        1 UNL1     -0.3863
     30 O         2.401602   -0.110222   3.356421 O.3        1 UNL1     -0.3829
     31 H         2.595326   -0.05346   -0.601789 H        1 UNL1     0.0937
     32 H         -0.0   0.0   0.0 H        1 UNL1     0.0671
     33 H         0.012331   -0.286855   2.613957 H        1 UNL1     0.0649
     34 H         1.320226   1.595146   3.722865 H        1 UNL1     0.0683
     35 H         3.492852   2.040168   2.676011 H        1 UNL1     0.1085
     36 H         4.421582   2.908929   0.232906 H        1 UNL1     0.0691
     37 H         1.8278   5.702221   2.257754 H        1 UNL1     0.0691
     38 H         4.208852   8.969605   -0.467574 H        1 UNL1     0.0385
     39 H         5.730439   9.532046   0.251435 H        1 UNL1     0.0385
     40 H         3.751501   9.727627   1.80543 H        1 UNL1     0.0789
     41 H         4.948365   10.788841   3.431806 H        1 UNL1     0.0623
     42 H         6.60213   10.770346   5.255785 H        1 UNL1     0.0654
     43 H         7.471263   6.643457   4.441673 H        1 UNL1     0.0654
     44 H         5.819326   6.620309   2.659393 H        1 UNL1     0.0623
     45 H         8.588996   9.583688   5.850896 H        1 UNL1     0.2921
     46 H         6.130887   5.128026   -1.359541 H        1 UNL1     0.2922
     47 H         0.782298   1.993136   -0.75385 H        1 UNL1     0.2126
     48 H         1.633188   -1.710047   0.018698 H        1 UNL1     0.2101
     49 H         -1.400891   1.090719   1.697816 H        1 UNL1     0.2100
     50 H         2.098064   -0.283738   4.271555 H        1 UNL1     0.2102
@<TRIPOS>BOND
     1     1     2    1
     2     1     6    1
     3     2     3    1
     4     3     4    1
     5     3    29    1
     6     3    33    1
     7     4     5    1
     8     5     6    1
     9     5     7    1
    10     5    35    1
    11     7     8    1
    12     8     9   ar
    13     8    13   ar
    14     9    10   ar
    15     9    36    1
    16    10    11   ar
    17    10    26    1
    18    11    12   ar
    19    11    14    1
    20    12    13   ar
    21    12    17    1
    22    13    37    1
    23    14    15    1
    24    14    25    2
    25    15    16    1
    26    15    38    1
    27    15    39    1
    28    16    17    1
    29    16    18    1
    30    16    40    1
    31    18    19   ar
    32    18    23   ar
    33    19    20   ar
    34    19    41    1
    35    20    21   ar
    36    20    42    1
    37    21    22   ar
    38    21    24    1
    39    22    23   ar
    40    22    43    1
    41    23    44    1
    42    24    45    1
    43    26    46    1
    44    27    47    1
    45    28    48    1
    46    29    49    1
    47    30    50    1
    48     1    31    1
    49     1    27    1
    50     2    32    1
    51     2    28    1
    52     4    34    1
    53     4    30    1
