@<TRIPOS>MOLECULE
*****
 50 53 0 0 0
SMALL
GASTEIGER

@<TRIPOS>ATOM
     1 C         -0.323728   -1.361963   1.676622 C.3        1 UNL1     0.1889
     2 C         -0.464569   -0.977565   0.179177 C.3        1 UNL1     0.1342
     3 C         -1.909445   -0.948862   -0.342337 C.3        1 UNL1     0.1174
     4 C         -2.794554   -2.018335   0.302588 C.3        1 UNL1     0.1456
     5 C         -2.631141   -2.075821   1.83241 C.3        1 UNL1     0.2326
     6 O         -1.264395   -2.305958   2.166941 O.3        1 UNL1     -0.3076
     7 O         -3.196687   -0.940418   2.512364 O.3        1 UNL1     -0.4605
     8 C         -3.70781   -1.182593   3.774756 C.ar        1 UNL1     0.1310
     9 C         -4.532615   -2.257802   4.122496 C.ar        1 UNL1     0.0226
     10 C         -4.986374   -2.42659   5.436085 C.ar        1 UNL1     0.1343
     11 C         -4.60651   -1.536611   6.439819 C.ar        1 UNL1     0.1007
     12 C         -3.816697   -0.436121   6.096451 C.ar        1 UNL1     0.1389
     13 C         -3.362742   -0.265161   4.775039 C.ar        1 UNL1     0.0229
     14 C         -4.987987   -1.714023   7.860084 C.2        1 UNL1     0.1740
     15 C         -4.311271   -0.794585   8.83386 C.3        1 UNL1     0.0520
     16 C         -4.231183   0.59237   8.211045 C.3        1 UNL1     0.1322
     17 O         -3.473375   0.559386   6.981529 O.3        1 UNL1     -0.4828
     18 C         -5.58489   1.298453   8.103115 C.ar        1 UNL1     -0.0067
     19 C         -5.952199   1.909529   6.886611 C.ar        1 UNL1     -0.0516
     20 C         -7.161939   2.604131   6.768198 C.ar        1 UNL1     -0.0198
     21 C         -8.007748   2.700884   7.858645 C.ar        1 UNL1     0.1169
     22 C         -7.689191   2.081304   9.060094 C.ar        1 UNL1     -0.0198
     23 C         -6.488073   1.370991   9.173345 C.ar        1 UNL1     -0.0516
     24 O         -9.159614   3.417459   7.716783 O.3        1 UNL1     -0.5068
     25 O         -5.74369   -2.599504   8.251647 O.2        1 UNL1     -0.2917
     26 O         -5.789117   -3.495494   5.709273 O.3        1 UNL1     -0.5058
     27 O         -0.207623   -0.241707   2.539371 O.3        1 UNL1     -0.3648
     28 O         0.256333   -1.942669   -0.609225 O.3        1 UNL1     -0.3841
     29 O         -2.461338   0.3649   -0.234751 O.3        1 UNL1     -0.3863
     30 O         -2.455963   -3.309317   -0.249146 O.3        1 UNL1     -0.3829
     31 H         0.6359   -1.880625   1.777528 H        1 UNL1     0.0937
     32 H         0.0   0.0   0.0 H        1 UNL1     0.0671
     33 H         -1.881662   -1.166371   -1.419201 H        1 UNL1     0.0649
     34 H         -3.845961   -1.830967   0.057971 H        1 UNL1     0.0683
     35 H         -3.186825   -2.975808   2.124158 H        1 UNL1     0.1085
     36 H         -4.817433   -3.014889   3.400126 H        1 UNL1     0.0691
     37 H         -2.749881   0.600546   4.533286 H        1 UNL1     0.0691
     38 H         -3.312022   -1.197618   9.03031 H        1 UNL1     0.0385
     39 H         -4.871027   -0.79398   9.775376 H        1 UNL1     0.0385
     40 H         -3.630956   1.21651   8.886838 H        1 UNL1     0.0789
     41 H         -5.301411   1.855708   6.018724 H        1 UNL1     0.0623
     42 H         -7.428414   3.081177   5.828289 H        1 UNL1     0.0654
     43 H         -8.351287   2.138034   9.915852 H        1 UNL1     0.0654
     44 H         -6.276121   0.890445   10.123607 H        1 UNL1     0.0623
     45 H         -8.925289   4.339294   7.521775 H        1 UNL1     0.2921
     46 H         -5.389854   -4.027817   6.415412 H        1 UNL1     0.2922
     47 H         0.522324   0.325802   2.254818 H        1 UNL1     0.2126
     48 H         1.196374   -1.864219   -0.356436 H        1 UNL1     0.2101
     49 H         -2.03118   0.956779   -0.872275 H        1 UNL1     0.2100
     50 H         -2.701874   -3.305832   -1.197422 H        1 UNL1     0.2102
@<TRIPOS>BOND
     1     1     2    1
     2     1     6    1
     3     2     3    1
     4     3     4    1
     5     3    29    1
     6     3    33    1
     7     4     5    1
     8     5     6    1
     9     5     7    1
    10     5    35    1
    11     7     8    1
    12     8     9   ar
    13     8    13   ar
    14     9    10   ar
    15     9    36    1
    16    10    11   ar
    17    10    26    1
    18    11    12   ar
    19    11    14    1
    20    12    13   ar
    21    12    17    1
    22    13    37    1
    23    14    15    1
    24    14    25    2
    25    15    16    1
    26    15    38    1
    27    15    39    1
    28    16    17    1
    29    16    18    1
    30    16    40    1
    31    18    19   ar
    32    18    23   ar
    33    19    20   ar
    34    19    41    1
    35    20    21   ar
    36    20    42    1
    37    21    22   ar
    38    21    24    1
    39    22    23   ar
    40    22    43    1
    41    23    44    1
    42    24    45    1
    43    26    46    1
    44    27    47    1
    45    28    48    1
    46    29    49    1
    47    30    50    1
    48     1    31    1
    49     1    27    1
    50     2    32    1
    51     2    28    1
    52     4    34    1
    53     4    30    1
