@<TRIPOS>MOLECULE
*****
 50 53 0 0 0
SMALL
GASTEIGER

@<TRIPOS>ATOM
     1 C         0.665818   -1.97646   0.64892 C.3        1 UNL1     0.1889
     2 C         -0.248641   -1.050189   -0.197087 C.3        1 UNL1     0.1342
     3 C         -1.754436   -1.258897   0.025367 C.3        1 UNL1     0.1174
     4 C         -2.117236   -2.721029   0.296781 C.3        1 UNL1     0.1456
     5 C         -1.185574   -3.378029   1.331537 C.3        1 UNL1     0.2326
     6 O         0.168607   -3.283508   0.895501 O.3        1 UNL1     -0.3076
     7 O         -1.383805   -2.89188   2.671569 O.3        1 UNL1     -0.4605
     8 C         -1.145137   -3.799981   3.687402 C.ar        1 UNL1     0.1310
     9 C         -1.59785   -5.123476   3.714111 C.ar        1 UNL1     0.0226
     10 C         -1.288298   -5.972833   4.78307 C.ar        1 UNL1     0.1343
     11 C         -0.497735   -5.525877   5.840936 C.ar        1 UNL1     0.1007
     12 C         -0.074111   -4.194221   5.84537 C.ar        1 UNL1     0.1389
     13 C         -0.387713   -3.339631   4.771703 C.ar        1 UNL1     0.0229
     14 C         -0.070501   -6.404582   6.954266 C.2        1 UNL1     0.1740
     15 C         0.955179   -5.823856   7.882859 C.3        1 UNL1     0.0520
     16 C         0.611092   -4.360923   8.126555 C.3        1 UNL1     0.1322
     17 O         0.616826   -3.619386   6.886732 O.3        1 UNL1     -0.4828
     18 C         -0.641611   -4.156814   8.982008 C.ar        1 UNL1     -0.0067
     19 C         -1.634027   -3.252152   8.551995 C.ar        1 UNL1     -0.0516
     20 C         -2.769373   -3.006591   9.333438 C.ar        1 UNL1     -0.0198
     21 C         -2.920085   -3.65238   10.547551 C.ar        1 UNL1     0.1169
     22 C         -1.976347   -4.573882   10.982329 C.ar        1 UNL1     -0.0198
     23 C         -0.849957   -4.833452   10.19244 C.ar        1 UNL1     -0.0516
     24 O         -4.020171   -3.359584   11.29887 O.3        1 UNL1     -0.5068
     25 O         -0.453524   -7.564117   7.08563 O.2        1 UNL1     -0.2917
     26 O         -1.761514   -7.252084   4.748896 O.3        1 UNL1     -0.5058
     27 O         1.145469   -1.365911   1.836334 O.3        1 UNL1     -0.3648
     28 O         0.01672   -1.296461   -1.590514 O.3        1 UNL1     -0.3841
     29 O         -2.246309   -0.370762   1.031056 O.3        1 UNL1     -0.3863
     30 O         -2.038001   -3.465854   -0.937985 O.3        1 UNL1     -0.3829
     31 H         1.568075   -2.153835   0.05348 H        1 UNL1     0.0937
     32 H         0.0   0.0   0.0 H        1 UNL1     0.0671
     33 H         -2.273326   -0.969022   -0.898995 H        1 UNL1     0.0649
     34 H         -3.153008   -2.790514   0.647136 H        1 UNL1     0.0683
     35 H         -1.458539   -4.440169   1.296494 H        1 UNL1     0.1085
     36 H         -2.169186   -5.547324   2.895546 H        1 UNL1     0.0691
     37 H         -0.046868   -2.306899   4.799649 H        1 UNL1     0.0691
     38 H         1.933322   -5.924478   7.400532 H        1 UNL1     0.0385
     39 H         0.969824   -6.405868   8.810665 H        1 UNL1     0.0385
     40 H         1.434909   -3.927397   8.709565 H        1 UNL1     0.0789
     41 H         -1.53464   -2.725759   7.607176 H        1 UNL1     0.0623
     42 H         -3.521791   -2.297814   8.99652 H        1 UNL1     0.0654
     43 H         -2.091896   -5.096448   11.924392 H        1 UNL1     0.0654
     44 H         -0.138097   -5.567245   10.55802 H        1 UNL1     0.0623
     45 H         -3.998169   -2.414297   11.519475 H        1 UNL1     0.2921
     46 H         -1.019964   -7.873419   4.822775 H        1 UNL1     0.2922
     47 H         1.605865   -0.541387   1.626438 H        1 UNL1     0.2126
     48 H         0.950313   -1.054704   -1.744426 H        1 UNL1     0.2101
     49 H         -2.236006   0.541279   0.699591 H        1 UNL1     0.2100
     50 H         -2.737295   -3.131599   -1.53713 H        1 UNL1     0.2102
@<TRIPOS>BOND
     1     1     2    1
     2     1     6    1
     3     2     3    1
     4     3     4    1
     5     3    29    1
     6     3    33    1
     7     4     5    1
     8     5     6    1
     9     5     7    1
    10     5    35    1
    11     7     8    1
    12     8     9   ar
    13     8    13   ar
    14     9    10   ar
    15     9    36    1
    16    10    11   ar
    17    10    26    1
    18    11    12   ar
    19    11    14    1
    20    12    13   ar
    21    12    17    1
    22    13    37    1
    23    14    15    1
    24    14    25    2
    25    15    16    1
    26    15    38    1
    27    15    39    1
    28    16    17    1
    29    16    18    1
    30    16    40    1
    31    18    19   ar
    32    18    23   ar
    33    19    20   ar
    34    19    41    1
    35    20    21   ar
    36    20    42    1
    37    21    22   ar
    38    21    24    1
    39    22    23   ar
    40    22    43    1
    41    23    44    1
    42    24    45    1
    43    26    46    1
    44    27    47    1
    45    28    48    1
    46    29    49    1
    47    30    50    1
    48     1    31    1
    49     1    27    1
    50     2    32    1
    51     2    28    1
    52     4    34    1
    53     4    30    1
