@<TRIPOS>MOLECULE
*****
 50 53 0 0 0
SMALL
GASTEIGER

@<TRIPOS>ATOM
     1 C         -0.335338   -1.329836   1.699968 C.3        1 UNL1     0.1889
     2 C         -0.464231   -0.974851   0.194208 C.3        1 UNL1     0.1342
     3 C         -1.904695   -0.959222   -0.339912 C.3        1 UNL1     0.1174
     4 C         -2.793217   -2.017787   0.318183 C.3        1 UNL1     0.1456
     5 C         -2.642641   -2.045247   1.850154 C.3        1 UNL1     0.2326
     6 O         -1.278344   -2.26606   2.200587 O.3        1 UNL1     -0.3076
     7 O         -3.21605   -0.898023   2.503147 O.3        1 UNL1     -0.4605
     8 C         -3.726764   -1.114117   3.770429 C.ar        1 UNL1     0.1310
     9 C         -4.544997   -2.186233   4.142397 C.ar        1 UNL1     0.0226
     10 C         -4.998864   -2.327405   5.459203 C.ar        1 UNL1     0.1343
     11 C         -4.625609   -1.411963   6.442304 C.ar        1 UNL1     0.1007
     12 C         -3.842532   -0.314697   6.074093 C.ar        1 UNL1     0.1389
     13 C         -3.388476   -0.171533   4.749416 C.ar        1 UNL1     0.0229
     14 C         -5.007237   -1.55882   7.866013 C.2        1 UNL1     0.1740
     15 C         -4.337297   -0.612719   8.818706 C.3        1 UNL1     0.0520
     16 C         -4.265505   0.759898   8.163935 C.3        1 UNL1     0.1322
     17 O         -3.506384   0.703256   6.936093 O.3        1 UNL1     -0.4828
     18 C         -5.623598   1.454596   8.038619 C.ar        1 UNL1     -0.0067
     19 C         -6.000381   2.021055   6.803559 C.ar        1 UNL1     -0.0516
     20 C         -7.214499   2.70468   6.667413 C.ar        1 UNL1     -0.0198
     21 C         -8.055325   2.834782   7.758244 C.ar        1 UNL1     0.1169
     22 C         -7.727323   2.259043   8.978808 C.ar        1 UNL1     -0.0198
     23 C         -6.521765   1.559491   9.110387 C.ar        1 UNL1     -0.0516
     24 O         -9.211811   3.539859   7.597598 O.3        1 UNL1     -0.5068
     25 O         -5.757623   -2.439803   8.277442 O.2        1 UNL1     -0.2917
     26 O         -5.795009   -3.394808   5.75651 O.3        1 UNL1     -0.5058
     27 O         -0.228638   -0.192818   2.541747 O.3        1 UNL1     -0.3648
     28 O         0.265125   -1.953596   -0.569208 O.3        1 UNL1     -0.3841
     29 O         -2.459946   0.35525   -0.262507 O.3        1 UNL1     -0.3863
     30 O         -2.447548   -3.318536   -0.205509 O.3        1 UNL1     -0.3829
     31 H         0.624374   -1.844483   1.819001 H        1 UNL1     0.0937
     32 H         0.0   0.0   0.0 H        1 UNL1     0.0671
     33 H         -1.867398   -1.197526   -1.412078 H        1 UNL1     0.0649
     34 H         -3.842868   -1.837347   0.06113 H        1 UNL1     0.0683
     35 H         -3.199082   -2.940538   2.154634 H        1 UNL1     0.1085
     36 H         -4.824315   -2.961685   3.437573 H        1 UNL1     0.0691
     37 H         -2.780939   0.692243   4.488107 H        1 UNL1     0.0691
     38 H         -3.335673   -1.004674   9.025217 H        1 UNL1     0.0385
     39 H         -4.897902   -0.593859   9.759527 H        1 UNL1     0.0385
     40 H         -3.669894   1.403382   8.82552 H        1 UNL1     0.0789
     41 H         -5.353686   1.940557   5.934677 H        1 UNL1     0.0623
     42 H         -7.488321   3.147342   5.712906 H        1 UNL1     0.0654
     43 H         -8.385403   2.341965   9.835526 H        1 UNL1     0.0654
     44 H         -6.302394   1.113401   10.075646 H        1 UNL1     0.0623
     45 H         -8.984157   4.447727   7.339398 H        1 UNL1     0.2921
     46 H         -5.392306   -3.908812   6.474173 H        1 UNL1     0.2922
     47 H         0.515461   0.359993   2.265022 H        1 UNL1     0.2126
     48 H         1.197974   -1.889699   -0.28735 H        1 UNL1     0.2101
     49 H         -2.019676   0.937648   -0.901859 H        1 UNL1     0.2100
     50 H         -2.680213   -3.332032   -1.157032 H        1 UNL1     0.2102
@<TRIPOS>BOND
     1     1     2    1
     2     1     6    1
     3     2     3    1
     4     3     4    1
     5     3    29    1
     6     3    33    1
     7     4     5    1
     8     5     6    1
     9     5     7    1
    10     5    35    1
    11     7     8    1
    12     8     9   ar
    13     8    13   ar
    14     9    10   ar
    15     9    36    1
    16    10    11   ar
    17    10    26    1
    18    11    12   ar
    19    11    14    1
    20    12    13   ar
    21    12    17    1
    22    13    37    1
    23    14    15    1
    24    14    25    2
    25    15    16    1
    26    15    38    1
    27    15    39    1
    28    16    17    1
    29    16    18    1
    30    16    40    1
    31    18    19   ar
    32    18    23   ar
    33    19    20   ar
    34    19    41    1
    35    20    21   ar
    36    20    42    1
    37    21    22   ar
    38    21    24    1
    39    22    23   ar
    40    22    43    1
    41    23    44    1
    42    24    45    1
    43    26    46    1
    44    27    47    1
    45    28    48    1
    46    29    49    1
    47    30    50    1
    48     1    31    1
    49     1    27    1
    50     2    32    1
    51     2    28    1
    52     4    34    1
    53     4    30    1
