@<TRIPOS>MOLECULE
*****
 50 53 0 0 0
SMALL
GASTEIGER

@<TRIPOS>ATOM
     1 C         -0.575734   -1.415695   1.560494 C.3        1 UNL1     0.1889
     2 C         -0.581716   -0.926033   0.087356 C.3        1 UNL1     0.1342
     3 C         -1.980025   -0.697335   -0.506694 C.3        1 UNL1     0.1174
     4 C         -3.017301   -1.694225   0.016168 C.3        1 UNL1     0.1456
     5 C         -2.954053   -1.864441   1.545021 C.3        1 UNL1     0.2326
     6 O         -1.644642   -2.272214   1.934934 O.3        1 UNL1     -0.3076
     7 O         -3.42808   -0.714989   2.269851 O.3        1 UNL1     -0.4605
     8 C         -4.028361   -0.972445   3.489239 C.ar        1 UNL1     0.1310
     9 C         -4.982207   -1.967461   3.728869 C.ar        1 UNL1     0.0226
     10 C         -5.520278   -2.16153   5.006648 C.ar        1 UNL1     0.1343
     11 C         -5.099532   -1.380107   6.081912 C.ar        1 UNL1     0.1007
     12 C         -4.177909   -0.356365   5.846658 C.ar        1 UNL1     0.1389
     13 C         -3.638995   -0.159703   4.561229 C.ar        1 UNL1     0.0229
     14 C         -5.572414   -1.597075   7.468802 C.2        1 UNL1     0.1740
     15 C         -4.852209   -0.817799   8.529736 C.3        1 UNL1     0.0520
     16 C         -4.589278   0.585773   8.001711 C.3        1 UNL1     0.1322
     17 O         -3.775722   0.540801   6.808742 O.3        1 UNL1     -0.4828
     18 C         -5.850741   1.443653   7.877304 C.ar        1 UNL1     -0.0067
     19 C         -6.092339   2.150577   6.681435 C.ar        1 UNL1     -0.0516
     20 C         -7.211641   2.981425   6.55175 C.ar        1 UNL1     -0.0198
     21 C         -8.090895   3.119227   7.610877 C.ar        1 UNL1     0.1169
     22 C         -7.897946   2.410065   8.789307 C.ar        1 UNL1     -0.0198
     23 C         -6.788694   1.564842   8.912655 C.ar        1 UNL1     -0.0516
     24 O         -9.149243   3.966533   7.461301 O.3        1 UNL1     -0.5068
     25 O         -6.439379   -2.414169   7.767489 O.2        1 UNL1     -0.2917
     26 O         -6.447605   -3.148368   5.173378 O.3        1 UNL1     -0.5058
     27 O         -0.386441   -0.371835   2.502466 O.3        1 UNL1     -0.3648
     28 O         0.072127   -1.918067   -0.725701 O.3        1 UNL1     -0.3841
     29 O         -2.385864   0.662585   -0.339231 O.3        1 UNL1     -0.3863
     30 O         -2.793637   -2.979389   -0.603521 O.3        1 UNL1     -0.3829
     31 H         0.311494   -2.047721   1.676465 H        1 UNL1     0.0937
     32 H         0.0   0.0   0.0 H        1 UNL1     0.0671
     33 H         -1.911972   -0.849863   -1.592891 H        1 UNL1     0.0649
     34 H         -4.024207   -1.371079   -0.270396 H        1 UNL1     0.0683
     35 H         -3.624192   -2.709902   1.744992 H        1 UNL1     0.1085
     36 H         -5.309019   -2.644213   2.947 H        1 UNL1     0.0691
     37 H         -2.923878   0.644906   4.404048 H        1 UNL1     0.0691
     38 H         -3.914383   -1.340696   8.745581 H        1 UNL1     0.0385
     39 H         -5.457481   -0.81011   9.442624 H        1 UNL1     0.0385
     40 H         -3.961338   1.098178   8.743096 H        1 UNL1     0.0789
     41 H         -5.412223   2.066422   5.838814 H        1 UNL1     0.0623
     42 H         -7.380571   3.530546   5.628744 H        1 UNL1     0.0654
     43 H         -8.588412   2.498965   9.619526 H        1 UNL1     0.0654
     44 H         -6.67476   1.017858   9.843608 H        1 UNL1     0.0623
     45 H         -8.806095   4.86094   7.303181 H        1 UNL1     0.2921
     46 H         -6.146306   -3.76254   5.861436 H        1 UNL1     0.2922
     47 H         0.427351   0.112935   2.305998 H        1 UNL1     0.2126
     48 H         0.995053   -1.97339   -0.411252 H        1 UNL1     0.2101
     49 H         -1.854064   1.238521   -0.911314 H        1 UNL1     0.2100
     50 H         -2.979895   -2.888919   -1.561037 H        1 UNL1     0.2102
@<TRIPOS>BOND
     1     1     2    1
     2     1     6    1
     3     2     3    1
     4     3     4    1
     5     3    29    1
     6     3    33    1
     7     4     5    1
     8     5     6    1
     9     5     7    1
    10     5    35    1
    11     7     8    1
    12     8     9   ar
    13     8    13   ar
    14     9    10   ar
    15     9    36    1
    16    10    11   ar
    17    10    26    1
    18    11    12   ar
    19    11    14    1
    20    12    13   ar
    21    12    17    1
    22    13    37    1
    23    14    15    1
    24    14    25    2
    25    15    16    1
    26    15    38    1
    27    15    39    1
    28    16    17    1
    29    16    18    1
    30    16    40    1
    31    18    19   ar
    32    18    23   ar
    33    19    20   ar
    34    19    41    1
    35    20    21   ar
    36    20    42    1
    37    21    22   ar
    38    21    24    1
    39    22    23   ar
    40    22    43    1
    41    23    44    1
    42    24    45    1
    43    26    46    1
    44    27    47    1
    45    28    48    1
    46    29    49    1
    47    30    50    1
    48     1    31    1
    49     1    27    1
    50     2    32    1
    51     2    28    1
    52     4    34    1
    53     4    30    1
