@<TRIPOS>MOLECULE
*****
 50 53 0 0 0
SMALL
GASTEIGER

@<TRIPOS>ATOM
     1 C         -0.088174   -1.037624   1.919991 C.3        1 UNL1     0.1889
     2 C         -0.56184   -0.823966   0.457141 C.3        1 UNL1     0.1342
     3 C         -2.065916   -0.55078   0.303555 C.3        1 UNL1     0.1174
     4 C         -2.914951   -1.314418   1.322924 C.3        1 UNL1     0.1456
     5 C         -2.353914   -1.212287   2.753018 C.3        1 UNL1     0.2326
     6 O         -1.009912   -1.687295   2.782963 O.3        1 UNL1     -0.3076
     7 O         -2.505249   0.09476   3.336153 O.3        1 UNL1     -0.4605
     8 C         -2.676237   0.130253   4.708389 C.ar        1 UNL1     0.1310
     9 C         -3.54067   -0.692251   5.438829 C.ar        1 UNL1     0.0226
     10 C         -3.63069   -0.591234   6.83224 C.ar        1 UNL1     0.1343
     11 C         -2.840134   0.319349   7.532027 C.ar        1 UNL1     0.1007
     12 C         -2.003261   1.174317   6.809907 C.ar        1 UNL1     0.1389
     13 C         -1.914876   1.074359   5.408612 C.ar        1 UNL1     0.0229
     14 C         -2.833473   0.410387   9.010479 C.2        1 UNL1     0.1740
     15 C         -1.765775   1.282816   9.602457 C.3        1 UNL1     0.0520
     16 C         -1.629203   2.529765   8.739658 C.3        1 UNL1     0.1322
     17 O         -1.262539   2.179662   7.386863 O.3        1 UNL1     -0.4828
     18 C         -2.81898   3.486654   8.846976 C.ar        1 UNL1     -0.0067
     19 C         -3.412222   3.988733   7.670458 C.ar        1 UNL1     -0.0516
     20 C         -4.471127   4.902363   7.733395 C.ar        1 UNL1     -0.0198
     21 C         -4.939959   5.32638   8.963937 C.ar        1 UNL1     0.1169
     22 C         -4.398445   4.824406   10.140212 C.ar        1 UNL1     -0.0198
     23 C         -3.35178   3.896708   10.077575 C.ar        1 UNL1     -0.0516
     24 O         -5.947327   6.245693   8.985722 O.3        1 UNL1     -0.5068
     25 O         -3.58819   -0.237305   9.731161 O.2        1 UNL1     -0.2917
     26 O         -4.494057   -1.421864   7.485108 O.3        1 UNL1     -0.5058
     27 O         0.452573   0.131007   2.515541 O.3        1 UNL1     -0.3648
     28 O         -0.263234   -2.013245   -0.297284 O.3        1 UNL1     -0.3841
     29 O         -2.328946   0.853835   0.305649 O.3        1 UNL1     -0.3863
     30 O         -2.970674   -2.707066   0.944616 O.3        1 UNL1     -0.3829
     31 H         0.756531   -1.733817   1.87677 H        1 UNL1     0.0937
     32 H         0.0   0.0   0.0 H        1 UNL1     0.0671
     33 H         -2.370852   -0.903237   -0.691687 H        1 UNL1     0.0649
     34 H         -3.943589   -0.937397   1.310194 H        1 UNL1     0.0683
     35 H         -2.957744   -1.927307   3.325744 H        1 UNL1     0.1085
     36 H         -4.140187   -1.458116   4.959089 H        1 UNL1     0.0691
     37 H         -1.256598   1.752352   4.869642 H        1 UNL1     0.0691
     38 H         -0.834841   0.705948   9.613035 H        1 UNL1     0.0385
     39 H         -2.031316   1.522676   10.637703 H        1 UNL1     0.0385
     40 H         -0.767182   3.094065   9.120453 H        1 UNL1     0.0789
     41 H         -3.056322   3.67846   6.692339 H        1 UNL1     0.0623
     42 H         -4.912326   5.291338   6.819035 H        1 UNL1     0.0654
     43 H         -4.768005   5.138236   11.109153 H        1 UNL1     0.0654
     44 H         -2.959627   3.517403   11.016292 H        1 UNL1     0.0623
     45 H         -5.636464   7.051859   8.542803 H        1 UNL1     0.2921
     46 H         -4.009476   -1.931589   8.153518 H        1 UNL1     0.2922
     47 H         1.176954   0.477299   1.975897 H        1 UNL1     0.2126
     48 H         0.707897   -2.115674   -0.285174 H        1 UNL1     0.2101
     49 H         -1.984548   1.255289   -0.507997 H        1 UNL1     0.2100
     50 H         -3.4609   -2.770356   0.098811 H        1 UNL1     0.2102
@<TRIPOS>BOND
     1     1     2    1
     2     1     6    1
     3     2     3    1
     4     3     4    1
     5     3    29    1
     6     3    33    1
     7     4     5    1
     8     5     6    1
     9     5     7    1
    10     5    35    1
    11     7     8    1
    12     8     9   ar
    13     8    13   ar
    14     9    10   ar
    15     9    36    1
    16    10    11   ar
    17    10    26    1
    18    11    12   ar
    19    11    14    1
    20    12    13   ar
    21    12    17    1
    22    13    37    1
    23    14    15    1
    24    14    25    2
    25    15    16    1
    26    15    38    1
    27    15    39    1
    28    16    17    1
    29    16    18    1
    30    16    40    1
    31    18    19   ar
    32    18    23   ar
    33    19    20   ar
    34    19    41    1
    35    20    21   ar
    36    20    42    1
    37    21    22   ar
    38    21    24    1
    39    22    23   ar
    40    22    43    1
    41    23    44    1
    42    24    45    1
    43    26    46    1
    44    27    47    1
    45    28    48    1
    46    29    49    1
    47    30    50    1
    48     1    31    1
    49     1    27    1
    50     2    32    1
    51     2    28    1
    52     4    34    1
    53     4    30    1
