@<TRIPOS>MOLECULE
*****
 50 53 0 0 0
SMALL
GASTEIGER

@<TRIPOS>ATOM
     1 C         -0.33685   -1.331119   1.698664 C.3        1 UNL1     0.1889
     2 C         -0.464871   -0.974755   0.193155 C.3        1 UNL1     0.1342
     3 C         -1.905088   -0.957845   -0.341591 C.3        1 UNL1     0.1174
     4 C         -2.794503   -2.016475   0.31519 C.3        1 UNL1     0.1456
     5 C         -2.644625   -2.04535   1.847204 C.3        1 UNL1     0.2326
     6 O         -1.280609   -2.267241   2.198052 O.3        1 UNL1     -0.3076
     7 O         -3.217673   -0.898367   2.500937 O.3        1 UNL1     -0.4605
     8 C         -3.729498   -1.115374   3.767614 C.ar        1 UNL1     0.1310
     9 C         -4.952797   -0.629332   4.241538 C.ar        1 UNL1     0.0226
     10 C         -5.393001   -0.918762   5.538594 C.ar        1 UNL1     0.1343
     11 C         -4.630792   -1.721855   6.385896 C.ar        1 UNL1     0.1007
     12 C         -3.388479   -2.179067   5.938238 C.ar        1 UNL1     0.1389
     13 C         -2.94487   -1.885715   4.634939 C.ar        1 UNL1     0.0229
     14 C         -5.086262   -2.128246   7.735543 C.2        1 UNL1     0.1740
     15 C         -4.248258   -3.16959   8.417381 C.3        1 UNL1     0.0520
     16 C         -2.782219   -2.862992   8.144092 C.3        1 UNL1     0.1322
     17 O         -2.50935   -2.885781   6.725609 O.3        1 UNL1     -0.4828
     18 C         -2.267741   -1.617047   8.869114 C.ar        1 UNL1     -0.0067
     19 C         -1.540672   -0.64726   8.14863 C.ar        1 UNL1     -0.0516
     20 C         -1.015388   0.480419   8.790798 C.ar        1 UNL1     -0.0198
     21 C         -1.20357   0.64575   10.151342 C.ar        1 UNL1     0.1169
     22 C         -1.943649   -0.274955   10.8817 C.ar        1 UNL1     -0.0198
     23 C         -2.484765   -1.393315   10.236315 C.ar        1 UNL1     -0.0516
     24 O         -0.645057   1.737027   10.749322 O.3        1 UNL1     -0.5068
     25 O         -6.121451   -1.71617   8.252322 O.2        1 UNL1     -0.2917
     26 O         -6.595039   -0.413259   5.940035 O.3        1 UNL1     -0.5058
     27 O         -0.229879   -0.194892   2.541477 O.3        1 UNL1     -0.3648
     28 O         0.26427   -1.953252   -0.570784 O.3        1 UNL1     -0.3841
     29 O         -2.459626   0.356875   -0.263293 O.3        1 UNL1     -0.3863
     30 O         -2.449339   -3.316966   -0.209476 O.3        1 UNL1     -0.3829
     31 H         0.622518   -1.846414   1.817678 H        1 UNL1     0.0937
     32 H         0.0   0.0   0.0 H        1 UNL1     0.0671
     33 H         -1.867448   -1.19524   -1.413947 H        1 UNL1     0.0649
     34 H         -3.843937   -1.835217   0.057827 H        1 UNL1     0.0683
     35 H         -3.201709   -2.940588   2.15066 H        1 UNL1     0.1085
     36 H         -5.616844   -0.046312   3.612849 H        1 UNL1     0.0691
     37 H         -1.973349   -2.252638   4.310892 H        1 UNL1     0.0691
     38 H         -4.531347   -4.144201   8.005653 H        1 UNL1     0.0385
     39 H         -4.478369   -3.17078   9.488281 H        1 UNL1     0.0385
     40 H         -2.195699   -3.698331   8.549954 H        1 UNL1     0.0789
     41 H         -1.371396   -0.758633   7.081581 H        1 UNL1     0.0623
     42 H         -0.446365   1.215116   8.226489 H        1 UNL1     0.0654
     43 H         -2.109879   -0.147518   11.944732 H        1 UNL1     0.0654
     44 H         -3.066511   -2.086873   10.835808 H        1 UNL1     0.0623
     45 H         0.317656   1.692232   10.631447 H        1 UNL1     0.2921
     46 H         -7.171531   -1.138941   6.227185 H        1 UNL1     0.2922
     47 H         0.512968   0.359155   2.263863 H        1 UNL1     0.2126
     48 H         1.19981   -1.878431   -0.300787 H        1 UNL1     0.2101
     49 H         -2.018861   0.939534   -0.902064 H        1 UNL1     0.2100
     50 H         -2.681588   -3.329504   -1.161114 H        1 UNL1     0.2102
@<TRIPOS>BOND
     1     1     2    1
     2     1     6    1
     3     2     3    1
     4     3     4    1
     5     3    29    1
     6     3    33    1
     7     4     5    1
     8     5     6    1
     9     5     7    1
    10     5    35    1
    11     7     8    1
    12     8     9   ar
    13     8    13   ar
    14     9    10   ar
    15     9    36    1
    16    10    11   ar
    17    10    26    1
    18    11    12   ar
    19    11    14    1
    20    12    13   ar
    21    12    17    1
    22    13    37    1
    23    14    15    1
    24    14    25    2
    25    15    16    1
    26    15    38    1
    27    15    39    1
    28    16    17    1
    29    16    18    1
    30    16    40    1
    31    18    19   ar
    32    18    23   ar
    33    19    20   ar
    34    19    41    1
    35    20    21   ar
    36    20    42    1
    37    21    22   ar
    38    21    24    1
    39    22    23   ar
    40    22    43    1
    41    23    44    1
    42    24    45    1
    43    26    46    1
    44    27    47    1
    45    28    48    1
    46    29    49    1
    47    30    50    1
    48     1    31    1
    49     1    27    1
    50     2    32    1
    51     2    28    1
    52     4    34    1
    53     4    30    1
