@<TRIPOS>MOLECULE
*****
 50 53 0 0 0
SMALL
GASTEIGER

@<TRIPOS>ATOM
     1 C         -0.086945   -1.035549   1.921167 C.3        1 UNL1     0.1889
     2 C         -0.561168   -0.823827   0.458216 C.3        1 UNL1     0.1342
     3 C         -2.065467   -0.551798   0.304757 C.3        1 UNL1     0.1174
     4 C         -2.91371   -1.314861   1.325215 C.3        1 UNL1     0.1456
     5 C         -2.352332   -1.210775   2.755035 C.3        1 UNL1     0.2326
     6 O         -1.008011   -1.684867   2.785123 O.3        1 UNL1     -0.3076
     7 O         -2.50436   0.096819   3.336761 O.3        1 UNL1     -0.4605
     8 C         -2.690087   0.13283   4.707067 C.ar        1 UNL1     0.1310
     9 C         -3.566257   -0.685762   5.427854 C.ar        1 UNL1     0.0226
     10 C         -3.670945   -0.584612   6.82023 C.ar        1 UNL1     0.1343
     11 C         -2.883784   0.322107   7.528805 C.ar        1 UNL1     0.1007
     12 C         -2.035111   1.17329   6.816046 C.ar        1 UNL1     0.1389
     13 C         -1.931966   1.073209   5.415769 C.ar        1 UNL1     0.0229
     14 C         -2.892769   0.412807   9.007266 C.2        1 UNL1     0.1740
     15 C         -1.827491   1.280095   9.611041 C.3        1 UNL1     0.0520
     16 C         -1.675703   2.526569   8.750099 C.3        1 UNL1     0.1322
     17 O         -1.295999   2.175029   7.401279 O.3        1 UNL1     -0.4828
     18 C         -2.862077   3.489006   8.844724 C.ar        1 UNL1     -0.0067
     19 C         -3.440133   3.994106   7.661956 C.ar        1 UNL1     -0.0516
     20 C         -4.495365   4.91268   7.713615 C.ar        1 UNL1     -0.0198
     21 C         -4.975554   5.338636   8.939097 C.ar        1 UNL1     0.1169
     22 C         -4.449219   4.833885   10.12106 C.ar        1 UNL1     -0.0198
     23 C         -3.406296   3.901299   10.069565 C.ar        1 UNL1     -0.0516
     24 O         -5.978778   6.26266   8.950168 O.3        1 UNL1     -0.5068
     25 O         -3.658304   -0.231487   9.719534 O.2        1 UNL1     -0.2917
     26 O         -4.545244   -1.411318   7.46346 O.3        1 UNL1     -0.5058
     27 O         0.453204   0.134097   2.515265 O.3        1 UNL1     -0.3648
     28 O         -0.261996   -2.013747   -0.294973 O.3        1 UNL1     -0.3841
     29 O         -2.329419   0.852645   0.305366 O.3        1 UNL1     -0.3863
     30 O         -2.968626   -2.707964   0.948469 O.3        1 UNL1     -0.3829
     31 H         0.758204   -1.731235   1.878477 H        1 UNL1     0.0937
     32 H         0.0   0.0   0.0 H        1 UNL1     0.0671
     33 H         -2.370455   -0.905561   -0.690006 H        1 UNL1     0.0649
     34 H         -3.942599   -0.93853   1.312361 H        1 UNL1     0.0683
     35 H         -2.95553   -1.925554   3.328726 H        1 UNL1     0.1085
     36 H         -4.164107   -1.448707   4.941428 H        1 UNL1     0.0691
     37 H         -1.264696   1.748218   4.884161 H        1 UNL1     0.0691
     38 H         -0.899442   0.698865   9.631589 H        1 UNL1     0.0385
     39 H         -2.103144   1.520984   10.6434 H        1 UNL1     0.0385
     40 H         -0.815236   3.08674   9.140388 H        1 UNL1     0.0789
     41 H         -3.075079   3.682369   6.687684 H        1 UNL1     0.0623
     42 H         -4.924769   5.30391   6.794613 H        1 UNL1     0.0654
     43 H         -4.827815   5.149244   11.086008 H        1 UNL1     0.0654
     44 H         -3.026154   3.519964   11.012391 H        1 UNL1     0.0623
     45 H         -5.661219   7.065473   8.505911 H        1 UNL1     0.2921
     46 H         -4.070098   -1.924455   8.136022 H        1 UNL1     0.2922
     47 H         1.179011   0.478703   1.97646 H        1 UNL1     0.2126
     48 H         0.707888   -2.124944   -0.26867 H        1 UNL1     0.2101
     49 H         -1.985363   1.25345   -0.508744 H        1 UNL1     0.2100
     50 H         -3.454141   -2.771932   0.100002 H        1 UNL1     0.2102
@<TRIPOS>BOND
     1     1     2    1
     2     1     6    1
     3     2     3    1
     4     3     4    1
     5     3    29    1
     6     3    33    1
     7     4     5    1
     8     5     6    1
     9     5     7    1
    10     5    35    1
    11     7     8    1
    12     8     9   ar
    13     8    13   ar
    14     9    10   ar
    15     9    36    1
    16    10    11   ar
    17    10    26    1
    18    11    12   ar
    19    11    14    1
    20    12    13   ar
    21    12    17    1
    22    13    37    1
    23    14    15    1
    24    14    25    2
    25    15    16    1
    26    15    38    1
    27    15    39    1
    28    16    17    1
    29    16    18    1
    30    16    40    1
    31    18    19   ar
    32    18    23   ar
    33    19    20   ar
    34    19    41    1
    35    20    21   ar
    36    20    42    1
    37    21    22   ar
    38    21    24    1
    39    22    23   ar
    40    22    43    1
    41    23    44    1
    42    24    45    1
    43    26    46    1
    44    27    47    1
    45    28    48    1
    46    29    49    1
    47    30    50    1
    48     1    31    1
    49     1    27    1
    50     2    32    1
    51     2    28    1
    52     4    34    1
    53     4    30    1
