@<TRIPOS>MOLECULE
*****
 50 53 0 0 0
SMALL
GASTEIGER

@<TRIPOS>ATOM
     1 C         1.209516   0.42554   1.768273 C.3        1 UNL1     0.1889
     2 C         -0.149975   0.373404   1.020607 C.3        1 UNL1     0.1342
     3 C         -0.899683   1.713032   0.95896 C.3        1 UNL1     0.1174
     4 C         -0.703506   2.561419   2.217877 C.3        1 UNL1     0.1456
     5 C         0.770276   2.63339   2.657366 C.3        1 UNL1     0.2326
     6 O         1.278792   1.318483   2.870203 O.3        1 UNL1     -0.3076
     7 O         1.592569   3.422743   1.778686 O.3        1 UNL1     -0.4605
     8 C         1.12544   4.692142   1.488958 C.ar        1 UNL1     0.1310
     9 C         0.039726   5.31769   2.111226 C.ar        1 UNL1     0.0226
     10 C         -0.34682   6.616204   1.758598 C.ar        1 UNL1     0.1343
     11 C         0.35847   7.330329   0.790904 C.ar        1 UNL1     0.1007
     12 C         1.418984   6.701104   0.133507 C.ar        1 UNL1     0.1389
     13 C         1.805808   5.394478   0.48639 C.ar        1 UNL1     0.0229
     14 C         0.045712   8.734831   0.43918 C.2        1 UNL1     0.1740
     15 C         1.039685   9.417242   -0.454063 C.3        1 UNL1     0.0520
     16 C         1.493228   8.425443   -1.516415 C.3        1 UNL1     0.1322
     17 O         2.113099   7.270709   -0.908616 O.3        1 UNL1     -0.4828
     18 C         0.415204   8.095485   -2.551652 C.ar        1 UNL1     -0.0067
     19 C         0.67654   7.121632   -3.537313 C.ar        1 UNL1     -0.0516
     20 C         -0.269305   6.829809   -4.527354 C.ar        1 UNL1     -0.0198
     21 C         -1.47458   7.508599   -4.546923 C.ar        1 UNL1     0.1169
     22 C         -1.774472   8.449091   -3.57 C.ar        1 UNL1     -0.0198
     23 C         -0.836248   8.727911   -2.568975 C.ar        1 UNL1     -0.0516
     24 O         -2.355737   7.224653   -5.548591 O.3        1 UNL1     -0.5068
     25 O         -0.913336   9.349378   0.898577 O.2        1 UNL1     -0.2917
     26 O         -1.415099   7.168924   2.402699 O.3        1 UNL1     -0.5058
     27 O         2.324822   0.57284   0.903876 O.3        1 UNL1     -0.3648
     28 O         -1.006402   -0.566085   1.696328 O.3        1 UNL1     -0.3841
     29 O         -0.577276   2.419785   -0.240493 O.3        1 UNL1     -0.3863
     30 O         -1.482103   1.997209   3.295441 O.3        1 UNL1     -0.3829
     31 H         1.352142   -0.558942   2.227111 H        1 UNL1     0.0937
     32 H         0.0   0.0   -0.0 H        1 UNL1     0.0671
     33 H         -1.974084   1.493094   0.888183 H        1 UNL1     0.0649
     34 H         -1.080053   3.576101   2.047486 H        1 UNL1     0.0683
     35 H         0.730085   3.122538   3.63869 H        1 UNL1     0.1085
     36 H         -0.514268   4.836871   2.909989 H        1 UNL1     0.0691
     37 H         2.634112   4.926511   -0.041258 H        1 UNL1     0.0691
     38 H         1.879985   9.738903   0.170401 H        1 UNL1     0.0385
     39 H         0.577002   10.308915   -0.890666 H        1 UNL1     0.0385
     40 H         2.302793   8.905398   -2.082779 H        1 UNL1     0.0789
     41 H         1.618738   6.581471   -3.549072 H        1 UNL1     0.0623
     42 H         -0.051196   6.085247   -5.288975 H        1 UNL1     0.0654
     43 H         -2.721345   8.975716   -3.567094 H        1 UNL1     0.0654
     44 H         -1.108122   9.460842   -1.815489 H        1 UNL1     0.0623
     45 H         -1.944455   6.577942   -6.144686 H        1 UNL1     0.2921
     46 H         -1.564165   8.067858   2.069369 H        1 UNL1     0.2922
     47 H         3.141544   0.344064   1.369156 H        1 UNL1     0.2126
     48 H         -0.637419   -1.453986   1.525399 H        1 UNL1     0.2101
     49 H         -0.243132   1.800474   -0.908771 H        1 UNL1     0.2100
     50 H         -2.025301   1.270253   2.926411 H        1 UNL1     0.2102
@<TRIPOS>BOND
     1     1     2    1
     2     1     6    1
     3     2     3    1
     4     3     4    1
     5     3    29    1
     6     3    33    1
     7     4     5    1
     8     5     6    1
     9     5     7    1
    10     5    35    1
    11     7     8    1
    12     8     9   ar
    13     8    13   ar
    14     9    10   ar
    15     9    36    1
    16    10    11   ar
    17    10    26    1
    18    11    12   ar
    19    11    14    1
    20    12    13   ar
    21    12    17    1
    22    13    37    1
    23    14    15    1
    24    14    25    2
    25    15    16    1
    26    15    38    1
    27    15    39    1
    28    16    17    1
    29    16    18    1
    30    16    40    1
    31    18    19   ar
    32    18    23   ar
    33    19    20   ar
    34    19    41    1
    35    20    21   ar
    36    20    42    1
    37    21    22   ar
    38    21    24    1
    39    22    23   ar
    40    22    43    1
    41    23    44    1
    42    24    45    1
    43    26    46    1
    44    27    47    1
    45    28    48    1
    46    29    49    1
    47    30    50    1
    48     1    31    1
    49     1    27    1
    50     2    32    1
    51     2    28    1
    52     4    34    1
    53     4    30    1
