@<TRIPOS>MOLECULE
*****
 50 53 0 0 0
SMALL
GASTEIGER

@<TRIPOS>ATOM
     1 C         0.958738   -1.560103   1.190674 C.3        1 UNL1     0.1889
     2 C         -0.271527   -0.696267   0.803149 C.3        1 UNL1     0.1342
     3 C         -0.89051   0.095798   1.965026 C.3        1 UNL1     0.1174
     4 C         -0.818071   -0.6524   3.298469 C.3        1 UNL1     0.1456
     5 C         0.57306   -1.257603   3.560856 C.3        1 UNL1     0.2326
     6 O         0.933604   -2.128999   2.491489 O.3        1 UNL1     -0.3076
     7 O         1.581   -0.272538   3.852445 O.3        1 UNL1     -0.4605
     8 C         2.58318   -0.668988   4.719618 C.ar        1 UNL1     0.1310
     9 C         2.395802   -1.061762   6.049249 C.ar        1 UNL1     0.0226
     10 C         3.475775   -1.463758   6.844208 C.ar        1 UNL1     0.1343
     11 C         4.767459   -1.505504   6.321092 C.ar        1 UNL1     0.1007
     12 C         4.972871   -1.076502   5.007111 C.ar        1 UNL1     0.1389
     13 C         3.887169   -0.669825   4.208803 C.ar        1 UNL1     0.0229
     14 C         5.93216   -2.001496   7.09026 C.2        1 UNL1     0.1740
     15 C         7.197452   -2.186742   6.305232 C.3        1 UNL1     0.0520
     16 C         7.33733   -1.021896   5.334909 C.3        1 UNL1     0.1322
     17 O         6.215465   -0.974124   4.425951 O.3        1 UNL1     -0.4828
     18 C         7.660221   0.310919   6.014665 C.ar        1 UNL1     -0.0067
     19 C         8.969416   0.551955   6.479557 C.ar        1 UNL1     -0.0516
     20 C         9.286981   1.740532   7.147689 C.ar        1 UNL1     -0.0198
     21 C         8.304765   2.690609   7.363169 C.ar        1 UNL1     0.1169
     22 C         7.014339   2.496617   6.887768 C.ar        1 UNL1     -0.0198
     23 C         6.70093   1.316177   6.203377 C.ar        1 UNL1     -0.0516
     24 O         8.642254   3.819157   8.050833 O.3        1 UNL1     -0.5068
     25 O         5.873011   -2.324081   8.273866 O.2        1 UNL1     -0.2917
     26 O         3.225672   -1.833764   8.133444 O.3        1 UNL1     -0.5058
     27 O         2.200339   -0.929895   0.918551 O.3        1 UNL1     -0.3648
     28 O         -1.294713   -1.566354   0.284744 O.3        1 UNL1     -0.3841
     29 O         -0.333214   1.40973   2.036682 O.3        1 UNL1     -0.3863
     30 O         -1.794559   -1.716431   3.298307 O.3        1 UNL1     -0.3829
     31 H         0.948797   -2.433216   0.52912 H        1 UNL1     0.0937
     32 H         0.0   0.0   0.0 H        1 UNL1     0.0671
     33 H         -1.95622   0.242729   1.740544 H        1 UNL1     0.0649
     34 H         -1.079737   0.022677   4.120785 H        1 UNL1     0.0683
     35 H         0.425143   -1.885832   4.448171 H        1 UNL1     0.1085
     36 H         1.409225   -1.104675   6.497517 H        1 UNL1     0.0691
     37 H         4.073805   -0.339333   3.189276 H        1 UNL1     0.0691
     38 H         7.11883   -3.139172   5.770235 H        1 UNL1     0.0385
     39 H         8.04333   -2.252392   6.998022 H        1 UNL1     0.0385
     40 H         8.201986   -1.237567   4.692744 H        1 UNL1     0.0789
     41 H         9.756061   -0.182042   6.330935 H        1 UNL1     0.0623
     42 H         10.297342   1.909507   7.511875 H        1 UNL1     0.0654
     43 H         6.241145   3.240639   7.037811 H        1 UNL1     0.0654
     44 H         5.685378   1.202502   5.83653 H        1 UNL1     0.0623
     45 H         8.85687   4.51619   7.409895 H        1 UNL1     0.2921
     46 H         3.715252   -2.646187   8.337634 H        1 UNL1     0.2922
     47 H         2.423395   -1.020205   -0.018439 H        1 UNL1     0.2126
     48 H         -1.67238   -1.119231   -0.497037 H        1 UNL1     0.2101
     49 H         0.367118   1.434998   2.708017 H        1 UNL1     0.2100
     50 H         -1.888534   -2.039558   4.218346 H        1 UNL1     0.2102
@<TRIPOS>BOND
     1     1     2    1
     2     1     6    1
     3     2     3    1
     4     3     4    1
     5     3    29    1
     6     3    33    1
     7     4     5    1
     8     5     6    1
     9     5     7    1
    10     5    35    1
    11     7     8    1
    12     8     9   ar
    13     8    13   ar
    14     9    10   ar
    15     9    36    1
    16    10    11   ar
    17    10    26    1
    18    11    12   ar
    19    11    14    1
    20    12    13   ar
    21    12    17    1
    22    13    37    1
    23    14    15    1
    24    14    25    2
    25    15    16    1
    26    15    38    1
    27    15    39    1
    28    16    17    1
    29    16    18    1
    30    16    40    1
    31    18    19   ar
    32    18    23   ar
    33    19    20   ar
    34    19    41    1
    35    20    21   ar
    36    20    42    1
    37    21    22   ar
    38    21    24    1
    39    22    23   ar
    40    22    43    1
    41    23    44    1
    42    24    45    1
    43    26    46    1
    44    27    47    1
    45    28    48    1
    46    29    49    1
    47    30    50    1
    48     1    31    1
    49     1    27    1
    50     2    32    1
    51     2    28    1
    52     4    34    1
    53     4    30    1
