@<TRIPOS>MOLECULE
*****
 50 53 0 0 0
SMALL
GASTEIGER

@<TRIPOS>ATOM
     1 C         -0.931842   -0.848232   -1.78409 C.3        1 UNL1     0.1889
     2 C         -0.969631   0.040219   -0.511625 C.3        1 UNL1     0.1342
     3 C         -2.079214   -0.318954   0.488518 C.3        1 UNL1     0.1174
     4 C         -3.360138   -0.803872   -0.195006 C.3        1 UNL1     0.1456
     5 C         -3.084016   -1.842766   -1.297196 C.3        1 UNL1     0.2326
     6 O         -2.189719   -1.298507   -2.265123 O.3        1 UNL1     -0.3076
     7 O         -2.657727   -3.119485   -0.7877 O.3        1 UNL1     -0.4605
     8 C         -2.029067   -3.101268   0.444365 C.ar        1 UNL1     0.1310
     9 C         -2.635102   -3.406142   1.667915 C.ar        1 UNL1     0.0226
     10 C         -1.907362   -3.375755   2.863479 C.ar        1 UNL1     0.1343
     11 C         -0.54877   -3.0626   2.861548 C.ar        1 UNL1     0.1007
     12 C         0.057761   -2.716384   1.651161 C.ar        1 UNL1     0.1389
     13 C         -0.674827   -2.74444   0.449512 C.ar        1 UNL1     0.0229
     14 C         0.287356   -3.097178   4.083781 C.2        1 UNL1     0.1740
     15 C         1.764647   -2.952543   3.86414 C.3        1 UNL1     0.0520
     16 C         1.990979   -1.898516   2.789079 C.3        1 UNL1     0.1322
     17 O         1.360815   -2.287645   1.548699 O.3        1 UNL1     -0.4828
     18 C         1.667517   -0.473741   3.245271 C.ar        1 UNL1     -0.0067
     19 C         2.168989   -0.011009   4.479215 C.ar        1 UNL1     -0.0516
     20 C         1.853086   1.269722   4.948147 C.ar        1 UNL1     -0.0198
     21 C         1.032577   2.092714   4.19763 C.ar        1 UNL1     0.1169
     22 C         0.550594   1.677893   2.962942 C.ar        1 UNL1     -0.0198
     23 C         0.881382   0.404154   2.485213 C.ar        1 UNL1     -0.0516
     24 O         0.715885   3.318926   4.704099 O.3        1 UNL1     -0.5068
     25 O         -0.164172   -3.309501   5.206067 O.2        1 UNL1     -0.2917
     26 O         -2.55786   -3.682401   4.022964 O.3        1 UNL1     -0.5058
     27 O         0.008819   -1.907429   -1.706332 O.3        1 UNL1     -0.3648
     28 O         -1.182082   1.405828   -0.914962 O.3        1 UNL1     -0.3841
     29 O         -1.596819   -1.234853   1.473687 O.3        1 UNL1     -0.3863
     30 O         -4.040608   0.326369   -0.782548 O.3        1 UNL1     -0.3829
     31 H         -0.558648   -0.215269   -2.596593 H        1 UNL1     0.0937
     32 H         0.0   0.0   0.0 H        1 UNL1     0.0671
     33 H         -2.340297   0.593943   1.041848 H        1 UNL1     0.0649
     34 H         -4.039609   -1.236451   0.547689 H        1 UNL1     0.0683
     35 H         -4.054713   -1.96613   -1.793591 H        1 UNL1     0.1085
     36 H         -3.673906   -3.711493   1.729297 H        1 UNL1     0.0691
     37 H         -0.179651   -2.469577   -0.479328 H        1 UNL1     0.0691
     38 H         2.149553   -3.927999   3.548132 H        1 UNL1     0.0385
     39 H         2.244148   -2.686467   4.812328 H        1 UNL1     0.0385
     40 H         3.065543   -1.893852   2.561457 H        1 UNL1     0.0789
     41 H         2.807596   -0.641257   5.091277 H        1 UNL1     0.0623
     42 H         2.236271   1.610565   5.906796 H        1 UNL1     0.0654
     43 H         -0.08044   2.320005   2.360118 H        1 UNL1     0.0654
     44 H         0.495946   0.116846   1.511694 H        1 UNL1     0.0623
     45 H         1.411245   3.945873   4.446947 H        1 UNL1     0.2921
     46 H         -3.069036   -4.498045   3.901162 H        1 UNL1     0.2922
     47 H         -0.399228   -2.689054   -1.308312 H        1 UNL1     0.2126
     48 H         -1.827415   1.785483   -0.287954 H        1 UNL1     0.2101
     49 H         -2.342441   -1.609676   1.969015 H        1 UNL1     0.2100
     50 H         -3.866341   0.315441   -1.74651 H        1 UNL1     0.2102
@<TRIPOS>BOND
     1     1     2    1
     2     1     6    1
     3     2     3    1
     4     3     4    1
     5     3    29    1
     6     3    33    1
     7     4     5    1
     8     5     6    1
     9     5     7    1
    10     5    35    1
    11     7     8    1
    12     8     9   ar
    13     8    13   ar
    14     9    10   ar
    15     9    36    1
    16    10    11   ar
    17    10    26    1
    18    11    12   ar
    19    11    14    1
    20    12    13   ar
    21    12    17    1
    22    13    37    1
    23    14    15    1
    24    14    25    2
    25    15    16    1
    26    15    38    1
    27    15    39    1
    28    16    17    1
    29    16    18    1
    30    16    40    1
    31    18    19   ar
    32    18    23   ar
    33    19    20   ar
    34    19    41    1
    35    20    21   ar
    36    20    42    1
    37    21    22   ar
    38    21    24    1
    39    22    23   ar
    40    22    43    1
    41    23    44    1
    42    24    45    1
    43    26    46    1
    44    27    47    1
    45    28    48    1
    46    29    49    1
    47    30    50    1
    48     1    31    1
    49     1    27    1
    50     2    32    1
    51     2    28    1
    52     4    34    1
    53     4    30    1
