@<TRIPOS>MOLECULE
*****
 50 53 0 0 0
SMALL
GASTEIGER

@<TRIPOS>ATOM
     1 C         -0.309599   -1.343822   1.693841 C.3        1 UNL1     0.1889
     2 C         -0.456693   -0.978811   0.192151 C.3        1 UNL1     0.1342
     3 C         -1.902899   -0.967469   -0.326333 C.3        1 UNL1     0.1174
     4 C         -2.778383   -2.035694   0.333622 C.3        1 UNL1     0.1456
     5 C         -2.611142   -2.07326   1.86365 C.3        1 UNL1     0.2326
     6 O         -1.241941   -2.288892   2.197801 O.3        1 UNL1     -0.3076
     7 O         -3.183832   -0.933978   2.531021 O.3        1 UNL1     -0.4605
     8 C         -3.679641   -1.161997   3.802126 C.ar        1 UNL1     0.1310
     9 C         -4.487853   -2.241332   4.175126 C.ar        1 UNL1     0.0226
     10 C         -4.926701   -2.394467   5.49568 C.ar        1 UNL1     0.1343
     11 C         -4.54795   -1.483992   6.481288 C.ar        1 UNL1     0.1007
     12 C         -3.77499   -0.379732   6.112605 C.ar        1 UNL1     0.1389
     13 C         -3.336049   -0.224549   4.784193 C.ar        1 UNL1     0.0229
     14 C         -4.913379   -1.643168   7.90792 C.2        1 UNL1     0.1740
     15 C         -4.238464   -0.700149   8.860156 C.3        1 UNL1     0.0520
     16 C         -4.181356   0.677497   8.214565 C.3        1 UNL1     0.1322
     17 O         -3.435219   0.633907   6.97826 O.3        1 UNL1     -0.4828
     18 C         -5.544555   1.36542   8.108861 C.ar        1 UNL1     -0.0067
     19 C         -5.93856   1.936932   6.881527 C.ar        1 UNL1     -0.0516
     20 C         -7.157861   2.614638   6.763282 C.ar        1 UNL1     -0.0198
     21 C         -7.98681   2.733797   7.864405 C.ar        1 UNL1     0.1169
     22 C         -7.641698   2.152821   9.077749 C.ar        1 UNL1     -0.0198
     23 C         -6.430923   1.459167   9.191431 C.ar        1 UNL1     -0.0516
     24 O         -9.148881   3.433414   7.721128 O.3        1 UNL1     -0.5068
     25 O         -5.654384   -2.531279   8.321026 O.2        1 UNL1     -0.2917
     26 O         -5.713657   -3.46843   5.793821 O.3        1 UNL1     -0.5058
     27 O         -0.200137   -0.212269   2.542601 O.3        1 UNL1     -0.3648
     28 O         0.269807   -1.947954   -0.586094 O.3        1 UNL1     -0.3841
     29 O         -2.464567   0.343271   -0.233491 O.3        1 UNL1     -0.3863
     30 O         -2.431169   -3.330701   -0.203118 O.3        1 UNL1     -0.3829
     31 H         0.654183   -1.853899   1.798841 H        1 UNL1     0.0937
     32 H         0.0   0.0   0.0 H        1 UNL1     0.0671
     33 H         -1.875845   -1.197887   -1.400528 H        1 UNL1     0.0649
     34 H         -3.83173   -1.85933   0.089171 H        1 UNL1     0.0683
     35 H         -3.15929   -2.973821   2.167629 H        1 UNL1     0.1085
     36 H         -4.770449   -3.013284   3.467771 H        1 UNL1     0.0691
     37 H         -2.736169   0.644479   4.522604 H        1 UNL1     0.0691
     38 H         -3.23251   -1.087928   9.05306 H        1 UNL1     0.0385
     39 H         -4.788985   -0.691171   9.807058 H        1 UNL1     0.0385
     40 H         -3.582224   1.319576   8.874334 H        1 UNL1     0.0789
     41 H         -5.301449   1.865024   6.004846 H        1 UNL1     0.0623
     42 H         -7.44502   3.061301   5.814575 H        1 UNL1     0.0654
     43 H         -8.290346   2.227162   9.94241 H        1 UNL1     0.0654
     44 H         -6.198067   1.008715   10.151492 H        1 UNL1     0.0623
     45 H         -8.929173   4.343815   7.464972 H        1 UNL1     0.2921
     46 H         -5.299879   -3.985854   6.502674 H        1 UNL1     0.2922
     47 H         0.537962   0.346595   2.261994 H        1 UNL1     0.2126
     48 H         1.20516   -1.88132   -0.313315 H        1 UNL1     0.2101
     49 H         -2.034458   0.932693   -0.87332 H        1 UNL1     0.2100
     50 H         -2.674005   -3.338701   -1.152159 H        1 UNL1     0.2102
@<TRIPOS>BOND
     1     1     2    1
     2     1     6    1
     3     2     3    1
     4     3     4    1
     5     3    29    1
     6     3    33    1
     7     4     5    1
     8     5     6    1
     9     5     7    1
    10     5    35    1
    11     7     8    1
    12     8     9   ar
    13     8    13   ar
    14     9    10   ar
    15     9    36    1
    16    10    11   ar
    17    10    26    1
    18    11    12   ar
    19    11    14    1
    20    12    13   ar
    21    12    17    1
    22    13    37    1
    23    14    15    1
    24    14    25    2
    25    15    16    1
    26    15    38    1
    27    15    39    1
    28    16    17    1
    29    16    18    1
    30    16    40    1
    31    18    19   ar
    32    18    23   ar
    33    19    20   ar
    34    19    41    1
    35    20    21   ar
    36    20    42    1
    37    21    22   ar
    38    21    24    1
    39    22    23   ar
    40    22    43    1
    41    23    44    1
    42    24    45    1
    43    26    46    1
    44    27    47    1
    45    28    48    1
    46    29    49    1
    47    30    50    1
    48     1    31    1
    49     1    27    1
    50     2    32    1
    51     2    28    1
    52     4    34    1
    53     4    30    1
