@<TRIPOS>MOLECULE
*****
 50 53 0 0 0
SMALL
GASTEIGER

@<TRIPOS>ATOM
     1 C         0.649193   -1.984071   0.642508 C.3        1 UNL1     0.1889
     2 C         -0.257273   -1.047426   -0.200675 C.3        1 UNL1     0.1342
     3 C         -1.764821   -1.244385   0.020618 C.3        1 UNL1     0.1174
     4 C         -2.13982   -2.704358   0.287027 C.3        1 UNL1     0.1456
     5 C         -1.213983   -3.372516   1.319865 C.3        1 UNL1     0.2326
     6 O         0.141081   -3.287768   0.884563 O.3        1 UNL1     -0.3076
     7 O         -1.408625   -2.889222   2.661455 O.3        1 UNL1     -0.4605
     8 C         -1.185149   -3.804801   3.674027 C.ar        1 UNL1     0.1310
     9 C         -1.656413   -5.121922   3.694112 C.ar        1 UNL1     0.0226
     10 C         -1.361367   -5.979978   4.760222 C.ar        1 UNL1     0.1343
     11 C         -0.567181   -5.548552   5.821816 C.ar        1 UNL1     0.1007
     12 C         -0.124965   -4.222993   5.832839 C.ar        1 UNL1     0.1389
     13 C         -0.423976   -3.359629   4.762033 C.ar        1 UNL1     0.0229
     14 C         -0.154984   -6.437786   6.932451 C.2        1 UNL1     0.1740
     15 C         0.876481   -5.875361   7.865889 C.3        1 UNL1     0.0520
     16 C         0.552323   -4.408778   8.114913 C.3        1 UNL1     0.1322
     17 O         0.571435   -3.662237   6.878232 O.3        1 UNL1     -0.4828
     18 C         -0.699462   -4.190701   8.968259 C.ar        1 UNL1     -0.0067
     19 C         -1.670997   -3.259506   8.547296 C.ar        1 UNL1     -0.0516
     20 C         -2.804275   -3.001392   9.327694 C.ar        1 UNL1     -0.0198
     21 C         -2.973534   -3.661042   10.531871 C.ar        1 UNL1     0.1169
     22 C         -2.051038   -4.608122   10.957167 C.ar        1 UNL1     -0.0198
     23 C         -0.926969   -4.879935   10.16809 C.ar        1 UNL1     -0.0516
     24 O         -4.070451   -3.356016   11.28296 O.3        1 UNL1     -0.5068
     25 O         -0.55452   -7.592378   7.058042 O.2        1 UNL1     -0.2917
     26 O         -1.852364   -7.252319   4.719562 O.3        1 UNL1     -0.5058
     27 O         1.133493   -1.381492   1.832104 O.3        1 UNL1     -0.3648
     28 O         0.006503   -1.291231   -1.594837 O.3        1 UNL1     -0.3841
     29 O         -2.24965   -0.355569   1.029121 O.3        1 UNL1     -0.3863
     30 O         -2.06635   -3.445682   -0.9502 O.3        1 UNL1     -0.3829
     31 H         1.550148   -2.166929   0.046754 H        1 UNL1     0.0937
     32 H         0.0   0.0   0.0 H        1 UNL1     0.0671
     33 H         -2.280981   -0.947129   -0.902928 H        1 UNL1     0.0649
     34 H         -3.176249   -2.766424   0.636831 H        1 UNL1     0.0683
     35 H         -1.495732   -4.432233   1.281185 H        1 UNL1     0.1085
     36 H         -2.231648   -5.53431   2.87243 H        1 UNL1     0.0691
     37 H         -0.068773   -2.331899   4.795118 H        1 UNL1     0.0691
     38 H         1.854281   -5.987669   7.385451 H        1 UNL1     0.0385
     39 H         0.880734   -6.461381   8.791276 H        1 UNL1     0.0385
     40 H         1.380719   -3.989269   8.701678 H        1 UNL1     0.0789
     41 H         -1.556676   -2.721961   7.610479 H        1 UNL1     0.0623
     42 H         -3.540338   -2.272351   8.997965 H        1 UNL1     0.0654
     43 H         -2.181426   -5.141465   11.89122 H        1 UNL1     0.0654
     44 H         -0.232097   -5.633543   10.525962 H        1 UNL1     0.0623
     45 H         -4.018349   -2.420053   11.535893 H        1 UNL1     0.2921
     46 H         -1.119767   -7.884286   4.792579 H        1 UNL1     0.2922
     47 H         1.594812   -0.55659   1.625752 H        1 UNL1     0.2126
     48 H         0.934799   -1.032578   -1.753259 H        1 UNL1     0.2101
     49 H         -2.236885   0.556839   0.698754 H        1 UNL1     0.2100
     50 H         -2.762648   -3.10364   -1.548437 H        1 UNL1     0.2102
@<TRIPOS>BOND
     1     1     2    1
     2     1     6    1
     3     2     3    1
     4     3     4    1
     5     3    29    1
     6     3    33    1
     7     4     5    1
     8     5     6    1
     9     5     7    1
    10     5    35    1
    11     7     8    1
    12     8     9   ar
    13     8    13   ar
    14     9    10   ar
    15     9    36    1
    16    10    11   ar
    17    10    26    1
    18    11    12   ar
    19    11    14    1
    20    12    13   ar
    21    12    17    1
    22    13    37    1
    23    14    15    1
    24    14    25    2
    25    15    16    1
    26    15    38    1
    27    15    39    1
    28    16    17    1
    29    16    18    1
    30    16    40    1
    31    18    19   ar
    32    18    23   ar
    33    19    20   ar
    34    19    41    1
    35    20    21   ar
    36    20    42    1
    37    21    22   ar
    38    21    24    1
    39    22    23   ar
    40    22    43    1
    41    23    44    1
    42    24    45    1
    43    26    46    1
    44    27    47    1
    45    28    48    1
    46    29    49    1
    47    30    50    1
    48     1    31    1
    49     1    27    1
    50     2    32    1
    51     2    28    1
    52     4    34    1
    53     4    30    1
