@<TRIPOS>MOLECULE
*****
 50 53 0 0 0
SMALL
GASTEIGER

@<TRIPOS>ATOM
     1 C         -0.364098   -1.34457   1.68237 C.3        1 UNL1     0.1889
     2 C         -0.478777   -0.970518   0.18008 C.3        1 UNL1     0.1342
     3 C         -1.915556   -0.928844   -0.362501 C.3        1 UNL1     0.1174
     4 C         -2.822597   -1.982545   0.277896 C.3        1 UNL1     0.1456
     5 C         -2.6819   -2.029727   1.810326 C.3        1 UNL1     0.2326
     6 O         -1.322961   -2.273385   2.166396 O.3        1 UNL1     -0.3076
     7 O         -3.243521   -0.88229   2.473116 O.3        1 UNL1     -0.4605
     8 C         -3.772214   -1.107522   3.731402 C.ar        1 UNL1     0.1310
     9 C         -4.612409   -2.170826   4.078903 C.ar        1 UNL1     0.0226
     10 C         -5.083583   -2.322805   5.388406 C.ar        1 UNL1     0.1343
     11 C         -4.706371   -1.427666   6.388545 C.ar        1 UNL1     0.1007
     12 C         -3.900948   -0.338679   6.044765 C.ar        1 UNL1     0.1389
     13 C         -3.429462   -0.184601   4.727423 C.ar        1 UNL1     0.0229
     14 C         -5.106637   -1.588045   7.805662 C.2        1 UNL1     0.1740
     15 C         -4.431942   -0.666823   8.779153 C.3        1 UNL1     0.0520
     16 C         -4.329794   0.713446   8.144819 C.3        1 UNL1     0.1322
     17 O         -3.557742   0.661271   6.924866 O.3        1 UNL1     -0.4828
     18 C         -5.674592   1.4326   8.01421 C.ar        1 UNL1     -0.0067
     19 C         -6.020877   2.036288   6.78789 C.ar        1 UNL1     -0.0516
     20 C         -7.221722   2.742364   6.648636 C.ar        1 UNL1     -0.0198
     21 C         -8.07943   2.857944   7.727898 C.ar        1 UNL1     0.1169
     22 C         -7.781801   2.246125   8.938655 C.ar        1 UNL1     -0.0198
     23 C         -6.589681   1.524382   9.072786 C.ar        1 UNL1     -0.0516
     24 O         -9.221897   3.585172   7.565696 O.3        1 UNL1     -0.5068
     25 O         -5.876262   -2.461959   8.196094 O.2        1 UNL1     -0.2917
     26 O         -5.900762   -3.38072   5.661572 O.3        1 UNL1     -0.5058
     27 O         -0.246997   -0.218907   2.537914 O.3        1 UNL1     -0.3648
     28 O         0.241774   -1.950385   -0.590228 O.3        1 UNL1     -0.3841
     29 O         -2.453159   0.392194   -0.2732 O.3        1 UNL1     -0.3863
     30 O         -2.491599   -3.281826   -0.258758 O.3        1 UNL1     -0.3829
     31 H         0.587697   -1.873761   1.80121 H        1 UNL1     0.0937
     32 H         0.0   0.0   0.0 H        1 UNL1     0.0671
     33 H         -1.8749   -1.155274   -1.437115 H        1 UNL1     0.0649
     34 H         -3.868058   -1.784676   0.016628 H        1 UNL1     0.0683
     35 H         -3.252464   -2.920694   2.101036 H        1 UNL1     0.1085
     36 H         -4.896547   -2.931496   3.360038 H        1 UNL1     0.0691
     37 H         -2.804659   0.672407   4.485242 H        1 UNL1     0.0691
     38 H         -3.439418   -1.078445   8.991262 H        1 UNL1     0.0385
     39 H         -5.002868   -0.651735   9.713816 H        1 UNL1     0.0385
     40 H         -3.731133   1.337462   8.822114 H        1 UNL1     0.0789
     41 H         -5.360372   1.967714   5.928425 H        1 UNL1     0.0623
     42 H         -7.471903   3.21352   5.701307 H        1 UNL1     0.0654
     43 H         -8.453438   2.317614   9.785829 H        1 UNL1     0.0654
     44 H         -6.394176   1.05039   10.029842 H        1 UNL1     0.0623
     45 H         -8.975646   4.497615   7.343154 H        1 UNL1     0.2921
     46 H         -5.5156   -3.910679   6.377257 H        1 UNL1     0.2922
     47 H         0.503835   0.328913   2.269576 H        1 UNL1     0.2126
     48 H         1.17713   -1.888882   -0.31626 H        1 UNL1     0.2101
     49 H         -2.006818   0.973808   -0.909045 H        1 UNL1     0.2100
     50 H         -2.72379   -3.283008   -1.210493 H        1 UNL1     0.2102
@<TRIPOS>BOND
     1     1     2    1
     2     1     6    1
     3     2     3    1
     4     3     4    1
     5     3    29    1
     6     3    33    1
     7     4     5    1
     8     5     6    1
     9     5     7    1
    10     5    35    1
    11     7     8    1
    12     8     9   ar
    13     8    13   ar
    14     9    10   ar
    15     9    36    1
    16    10    11   ar
    17    10    26    1
    18    11    12   ar
    19    11    14    1
    20    12    13   ar
    21    12    17    1
    22    13    37    1
    23    14    15    1
    24    14    25    2
    25    15    16    1
    26    15    38    1
    27    15    39    1
    28    16    17    1
    29    16    18    1
    30    16    40    1
    31    18    19   ar
    32    18    23   ar
    33    19    20   ar
    34    19    41    1
    35    20    21   ar
    36    20    42    1
    37    21    22   ar
    38    21    24    1
    39    22    23   ar
    40    22    43    1
    41    23    44    1
    42    24    45    1
    43    26    46    1
    44    27    47    1
    45    28    48    1
    46    29    49    1
    47    30    50    1
    48     1    31    1
    49     1    27    1
    50     2    32    1
    51     2    28    1
    52     4    34    1
    53     4    30    1
