@<TRIPOS>MOLECULE
*****
 50 53 0 0 0
SMALL
GASTEIGER

@<TRIPOS>ATOM
     1 C         -0.324943   -1.331287   1.700851 C.3        1 UNL1     0.1889
     2 C         -0.460308   -0.976426   0.19563 C.3        1 UNL1     0.1342
     3 C         -1.902686   -0.96547   -0.333418 C.3        1 UNL1     0.1174
     4 C         -2.78537   -2.027111   0.32757 C.3        1 UNL1     0.1456
     5 C         -2.629317   -2.054382   1.858996 C.3        1 UNL1     0.2326
     6 O         -1.26307   -2.270737   2.204582 O.3        1 UNL1     -0.3076
     7 O         -3.204228   -0.9092   2.514248 O.3        1 UNL1     -0.4605
     8 C         -3.709762   -1.127246   3.783271 C.ar        1 UNL1     0.1310
     9 C         -4.52312   -2.202147   4.157884 C.ar        1 UNL1     0.0226
     10 C         -4.971882   -2.345092   5.476248 C.ar        1 UNL1     0.1343
     11 C         -4.598211   -1.428616   6.458227 C.ar        1 UNL1     0.1007
     12 C         -3.820079   -0.328682   6.0875 C.ar        1 UNL1     0.1389
     13 C         -3.371162   -0.183743   4.761266 C.ar        1 UNL1     0.0229
     14 C         -4.97434   -1.577027   7.883237 C.2        1 UNL1     0.1740
     15 C         -4.304196   -0.628903   8.833772 C.3        1 UNL1     0.0520
     16 C         -4.239263   0.744078   8.179047 C.3        1 UNL1     0.1322
     17 O         -3.48428   0.690205   6.948531 O.3        1 UNL1     -0.4828
     18 C         -5.600085   1.434291   8.058657 C.ar        1 UNL1     -0.0067
     19 C         -5.983873   1.998111   6.824547 C.ar        1 UNL1     -0.0516
     20 C         -7.200733   2.677697   6.692732 C.ar        1 UNL1     -0.0198
     21 C         -8.037372   2.80638   7.786946 C.ar        1 UNL1     0.1169
     22 C         -7.702396   2.233107   9.006777 C.ar        1 UNL1     -0.0198
     23 C         -6.494064   1.537561   9.134078 C.ar        1 UNL1     -0.0516
     24 O         -9.196773   3.507573   7.630365 O.3        1 UNL1     -0.5068
     25 O         -5.720347   -2.46058   8.297113 O.2        1 UNL1     -0.2917
     26 O         -5.76343   -3.415191   5.776123 O.3        1 UNL1     -0.5058
     27 O         -0.219056   -0.194092   2.542494 O.3        1 UNL1     -0.3648
     28 O         0.269602   -1.95259   -0.570556 O.3        1 UNL1     -0.3841
     29 O         -2.462019   0.347137   -0.253779 O.3        1 UNL1     -0.3863
     30 O         -2.437231   -3.326599   -0.197613 O.3        1 UNL1     -0.3829
     31 H         0.636885   -1.84277   1.816398 H        1 UNL1     0.0937
     32 H         0.0   0.0   0.0 H        1 UNL1     0.0671
     33 H         -1.868369   -1.20343   -1.40576 H        1 UNL1     0.0649
     34 H         -3.836511   -1.850103   0.074248 H        1 UNL1     0.0683
     35 H         -3.181709   -2.951576   2.165239 H        1 UNL1     0.1085
     36 H         -4.80234   -2.978379   3.45388 H        1 UNL1     0.0691
     37 H         -2.767418   0.682098   4.498007 H        1 UNL1     0.0691
     38 H         -3.300556   -1.017572   9.036675 H        1 UNL1     0.0385
     39 H         -4.861548   -0.612094   9.776562 H        1 UNL1     0.0385
     40 H         -3.643467   1.389402   8.838672 H        1 UNL1     0.0789
     41 H         -5.340586   1.91867   5.953041 H        1 UNL1     0.0623
     42 H         -7.479984   3.118375   5.73888 H        1 UNL1     0.0654
     43 H         -8.357126   2.314921   9.866164 H        1 UNL1     0.0654
     44 H         -6.269207   1.093293   10.098915 H        1 UNL1     0.0623
     45 H         -8.973135   4.415674   7.369487 H        1 UNL1     0.2921
     46 H         -5.3559   -3.92868   6.491427 H        1 UNL1     0.2922
     47 H         0.522333   0.361153   2.263379 H        1 UNL1     0.2126
     48 H         1.203101   -1.886144   -0.291456 H        1 UNL1     0.2101
     49 H         -2.025877   0.931145   -0.894489 H        1 UNL1     0.2100
     50 H         -2.673195   -3.340673   -1.148316 H        1 UNL1     0.2102
@<TRIPOS>BOND
     1     1     2    1
     2     1     6    1
     3     2     3    1
     4     3     4    1
     5     3    29    1
     6     3    33    1
     7     4     5    1
     8     5     6    1
     9     5     7    1
    10     5    35    1
    11     7     8    1
    12     8     9   ar
    13     8    13   ar
    14     9    10   ar
    15     9    36    1
    16    10    11   ar
    17    10    26    1
    18    11    12   ar
    19    11    14    1
    20    12    13   ar
    21    12    17    1
    22    13    37    1
    23    14    15    1
    24    14    25    2
    25    15    16    1
    26    15    38    1
    27    15    39    1
    28    16    17    1
    29    16    18    1
    30    16    40    1
    31    18    19   ar
    32    18    23   ar
    33    19    20   ar
    34    19    41    1
    35    20    21   ar
    36    20    42    1
    37    21    22   ar
    38    21    24    1
    39    22    23   ar
    40    22    43    1
    41    23    44    1
    42    24    45    1
    43    26    46    1
    44    27    47    1
    45    28    48    1
    46    29    49    1
    47    30    50    1
    48     1    31    1
    49     1    27    1
    50     2    32    1
    51     2    28    1
    52     4    34    1
    53     4    30    1
