@<TRIPOS>MOLECULE
*****
 50 53 0 0 0
SMALL
GASTEIGER

@<TRIPOS>ATOM
     1 C         -0.393828   -1.378364   1.647973 C.3        1 UNL1     0.1889
     2 C         -0.493035   -0.967844   0.154129 C.3        1 UNL1     0.1342
     3 C         -1.925325   -0.89396   -0.396829 C.3        1 UNL1     0.1174
     4 C         -2.850888   -1.949861   0.212697 C.3        1 UNL1     0.1456
     5 C         -2.721474   -2.034689   1.7445 C.3        1 UNL1     0.2326
     6 O         -1.368442   -2.305071   2.103756 O.3        1 UNL1     -0.3076
     7 O         -3.272184   -0.895482   2.430246 O.3        1 UNL1     -0.4605
     8 C         -3.815971   -1.143455   3.677776 C.ar        1 UNL1     0.1310
     9 C         -4.901032   -1.988176   3.935437 C.ar        1 UNL1     0.0226
     10 C         -5.368889   -2.188035   5.239687 C.ar        1 UNL1     0.1343
     11 C         -4.747309   -1.565941   6.321574 C.ar        1 UNL1     0.1007
     12 C         -3.688872   -0.688116   6.072741 C.ar        1 UNL1     0.1389
     13 C         -3.220317   -0.485272   4.760971 C.ar        1 UNL1     0.0229
     14 C         -5.146856   -1.806863   7.727445 C.2        1 UNL1     0.1740
     15 C         -4.232149   -1.233697   8.769721 C.3        1 UNL1     0.0520
     16 C         -3.780193   0.145057   8.308492 C.3        1 UNL1     0.1322
     17 O         -3.074691   0.059277   7.050725 O.3        1 UNL1     -0.4828
     18 C         -4.888205   1.200423   8.343638 C.ar        1 UNL1     -0.0067
     19 C         -5.487024   1.535096   9.575556 C.ar        1 UNL1     -0.0516
     20 C         -6.535139   2.461207   9.636663 C.ar        1 UNL1     -0.0198
     21 C         -6.99737   3.05274   8.474657 C.ar        1 UNL1     0.1169
     22 C         -6.405706   2.768677   7.250696 C.ar        1 UNL1     -0.0198
     23 C         -5.345319   1.856456   7.191655 C.ar        1 UNL1     -0.0516
     24 O         -8.044817   3.92133   8.568515 O.3        1 UNL1     -0.5068
     25 O         -6.112745   -2.494724   8.047433 O.2        1 UNL1     -0.2917
     26 O         -6.431847   -3.023535   5.423112 O.3        1 UNL1     -0.5058
     27 O         -0.267523   -0.274663   2.5304 O.3        1 UNL1     -0.3648
     28 O         0.219587   -1.939199   -0.634126 O.3        1 UNL1     -0.3841
     29 O         -2.445703   0.431834   -0.280178 O.3        1 UNL1     -0.3863
     30 O         -2.533695   -3.240659   -0.352033 O.3        1 UNL1     -0.3829
     31 H         0.54991   -1.923097   1.760688 H        1 UNL1     0.0937
     32 H         0.0   0.0   0.0 H        1 UNL1     0.0671
     33 H         -1.880265   -1.095795   -1.476158 H        1 UNL1     0.0649
     34 H         -3.891753   -1.731731   -0.050782 H        1 UNL1     0.0683
     35 H         -3.305984   -2.924341   2.010481 H        1 UNL1     0.1085
     36 H         -5.391476   -2.544037   3.143854 H        1 UNL1     0.0691
     37 H         -2.395493   0.204072   4.593744 H        1 UNL1     0.0691
     38 H         -3.3804   -1.914371   8.873322 H        1 UNL1     0.0385
     39 H         -4.759437   -1.197126   9.7291 H        1 UNL1     0.0385
     40 H         -3.023702   0.494004   9.024366 H        1 UNL1     0.0789
     41 H         -5.148405   1.077787   10.500682 H        1 UNL1     0.0623
     42 H         -6.996605   2.702025   10.591162 H        1 UNL1     0.0654
     43 H         -6.749871   3.237489   6.336543 H        1 UNL1     0.0654
     44 H         -4.899684   1.666124   6.220044 H        1 UNL1     0.0623
     45 H         -8.506096   3.756092   9.406748 H        1 UNL1     0.2921
     46 H         -6.256638   -3.60937   6.176445 H        1 UNL1     0.2922
     47 H         -1.141715   0.046439   2.792204 H        1 UNL1     0.2126
     48 H         -0.328814   -2.116244   -1.42257 H        1 UNL1     0.2101
     49 H         -3.00272   0.499244   0.511644 H        1 UNL1     0.2100
     50 H         -1.583149   -3.24072   -0.589045 H        1 UNL1     0.2102
@<TRIPOS>BOND
     1     1     2    1
     2     1     6    1
     3     2     3    1
     4     3     4    1
     5     3    29    1
     6     3    33    1
     7     4     5    1
     8     5     6    1
     9     5     7    1
    10     5    35    1
    11     7     8    1
    12     8     9   ar
    13     8    13   ar
    14     9    10   ar
    15     9    36    1
    16    10    11   ar
    17    10    26    1
    18    11    12   ar
    19    11    14    1
    20    12    13   ar
    21    12    17    1
    22    13    37    1
    23    14    15    1
    24    14    25    2
    25    15    16    1
    26    15    38    1
    27    15    39    1
    28    16    17    1
    29    16    18    1
    30    16    40    1
    31    18    19   ar
    32    18    23   ar
    33    19    20   ar
    34    19    41    1
    35    20    21   ar
    36    20    42    1
    37    21    22   ar
    38    21    24    1
    39    22    23   ar
    40    22    43    1
    41    23    44    1
    42    24    45    1
    43    26    46    1
    44    27    47    1
    45    28    48    1
    46    29    49    1
    47    30    50    1
    48     1    31    1
    49     1    27    1
    50     2    32    1
    51     2    28    1
    52     4    34    1
    53     4    30    1
