@<TRIPOS>MOLECULE
*****
 50 53 0 0 0
SMALL
GASTEIGER

@<TRIPOS>ATOM
     1 C         -0.38285   -1.350503   1.673431 C.3        1 UNL1     0.1889
     2 C         -0.489097   -0.966654   0.172994 C.3        1 UNL1     0.1342
     3 C         -1.923695   -0.907335   -0.373699 C.3        1 UNL1     0.1174
     4 C         -2.843297   -1.955493   0.257819 C.3        1 UNL1     0.1456
     5 C         -2.70783   -2.012932   1.79037 C.3        1 UNL1     0.2326
     6 O         -1.352527   -2.272357   2.149148 O.3        1 UNL1     -0.3076
     7 O         -3.259899   -0.86372   2.458092 O.3        1 UNL1     -0.4605
     8 C         -3.787503   -1.089314   3.71677 C.ar        1 UNL1     0.1310
     9 C         -4.634472   -2.147774   4.062611 C.ar        1 UNL1     0.0226
     10 C         -5.103931   -2.300693   5.372621 C.ar        1 UNL1     0.1343
     11 C         -4.718264   -1.41152   6.374855 C.ar        1 UNL1     0.1007
     12 C         -3.905877   -0.327143   6.032893 C.ar        1 UNL1     0.1389
     13 C         -3.436107   -0.172103   4.71505 C.ar        1 UNL1     0.0229
     14 C         -5.116648   -1.573692   7.792298 C.2        1 UNL1     0.1740
     15 C         -4.433378   -0.660455   8.767331 C.3        1 UNL1     0.0520
     16 C         -4.322799   0.721122   8.137272 C.3        1 UNL1     0.1322
     17 O         -3.553727   0.66747   6.915503 O.3        1 UNL1     -0.4828
     18 C         -5.662742   1.450201   8.011889 C.ar        1 UNL1     -0.0067
     19 C         -6.015187   2.045002   6.782983 C.ar        1 UNL1     -0.0516
     20 C         -7.211374   2.759718   6.647781 C.ar        1 UNL1     -0.0198
     21 C         -8.058226   2.892776   7.733582 C.ar        1 UNL1     0.1169
     22 C         -7.754644   2.290102   8.947444 C.ar        1 UNL1     -0.0198
     23 C         -6.567356   1.559744   9.077754 C.ar        1 UNL1     -0.0516
     24 O         -9.196075   3.627935   7.574703 O.3        1 UNL1     -0.5068
     25 O         -5.891616   -2.443406   8.181536 O.2        1 UNL1     -0.2917
     26 O         -5.928004   -3.353684   5.644097 O.3        1 UNL1     -0.5058
     27 O         -0.257051   -0.231033   2.535839 O.3        1 UNL1     -0.3648
     28 O         0.223916   -1.949292   -0.600789 O.3        1 UNL1     -0.3841
     29 O         -2.448221   0.41853   -0.278374 O.3        1 UNL1     -0.3863
     30 O         -2.523761   -3.254936   -0.285352 O.3        1 UNL1     -0.3829
     31 H         0.563186   -1.88996   1.792093 H        1 UNL1     0.0937
     32 H         0.0   0.0   0.0 H        1 UNL1     0.0671
     33 H         -1.881997   -1.127964   -1.44948 H        1 UNL1     0.0649
     34 H         -3.885895   -1.745567   -0.005473 H        1 UNL1     0.0683
     35 H         -3.28825   -2.89975   2.074174 H        1 UNL1     0.1085
     36 H         -4.925517   -2.904061   3.341887 H        1 UNL1     0.0691
     37 H         -2.805763   0.681248   4.474318 H        1 UNL1     0.0691
     38 H         -3.443348   -1.079783   8.97597 H        1 UNL1     0.0385
     39 H         -5.002198   -0.64438   9.703261 H        1 UNL1     0.0385
     40 H         -3.718296   1.338669   8.815308 H        1 UNL1     0.0789
     41 H         -5.36313   1.962695   5.918288 H        1 UNL1     0.0623
     42 H         -7.466275   3.223863   5.698251 H        1 UNL1     0.0654
     43 H         -8.417919   2.375299   9.799922 H        1 UNL1     0.0654
     44 H         -6.367063   1.093313   10.037529 H        1 UNL1     0.0623
     45 H         -9.959276   3.052773   7.746253 H        1 UNL1     0.2921
     46 H         -5.543772   -3.890197   6.355385 H        1 UNL1     0.2922
     47 H         0.50266   0.30839   2.275604 H        1 UNL1     0.2126
     48 H         1.155122   -1.913361   -0.308733 H        1 UNL1     0.2101
     49 H         -1.98817   1.00116   -0.903425 H        1 UNL1     0.2100
     50 H         -2.747724   -3.246466   -1.239019 H        1 UNL1     0.2102
@<TRIPOS>BOND
     1     1     2    1
     2     1     6    1
     3     2     3    1
     4     3     4    1
     5     3    29    1
     6     3    33    1
     7     4     5    1
     8     5     6    1
     9     5     7    1
    10     5    35    1
    11     7     8    1
    12     8     9   ar
    13     8    13   ar
    14     9    10   ar
    15     9    36    1
    16    10    11   ar
    17    10    26    1
    18    11    12   ar
    19    11    14    1
    20    12    13   ar
    21    12    17    1
    22    13    37    1
    23    14    15    1
    24    14    25    2
    25    15    16    1
    26    15    38    1
    27    15    39    1
    28    16    17    1
    29    16    18    1
    30    16    40    1
    31    18    19   ar
    32    18    23   ar
    33    19    20   ar
    34    19    41    1
    35    20    21   ar
    36    20    42    1
    37    21    22   ar
    38    21    24    1
    39    22    23   ar
    40    22    43    1
    41    23    44    1
    42    24    45    1
    43    26    46    1
    44    27    47    1
    45    28    48    1
    46    29    49    1
    47    30    50    1
    48     1    31    1
    49     1    27    1
    50     2    32    1
    51     2    28    1
    52     4    34    1
    53     4    30    1
