@<TRIPOS>MOLECULE
*****
 50 53 0 0 0
SMALL
GASTEIGER

@<TRIPOS>ATOM
     1 C         -1.449729   -1.317954   0.965446 C.3        1 UNL1     0.1889
     2 C         -0.876185   -0.596194   -0.283573 C.3        1 UNL1     0.1342
     3 C         -1.878808   0.305453   -1.019947 C.3        1 UNL1     0.1174
     4 C         -3.305885   -0.247541   -0.992275 C.3        1 UNL1     0.1456
     5 C         -3.728558   -0.720337   0.410641 C.3        1 UNL1     0.2326
     6 O         -2.813921   -1.704442   0.887974 O.3        1 UNL1     -0.3076
     7 O         -3.935621   0.358205   1.340798 O.3        1 UNL1     -0.4605
     8 C         -4.89701   0.144769   2.312244 C.ar        1 UNL1     0.1310
     9 C         -6.171589   -0.386698   2.087991 C.ar        1 UNL1     0.0226
     10 C         -7.07062   -0.581105   3.143382 C.ar        1 UNL1     0.1343
     11 C         -6.70781   -0.270622   4.453272 C.ar        1 UNL1     0.1007
     12 C         -5.452826   0.298962   4.684297 C.ar        1 UNL1     0.1389
     13 C         -4.550019   0.496796   3.622585 C.ar        1 UNL1     0.0229
     14 C         -7.586754   -0.533652   5.616211 C.2        1 UNL1     0.1740
     15 C         -6.953679   -0.347347   6.963822 C.3        1 UNL1     0.0520
     16 C         -6.069492   0.891063   6.9137 C.3        1 UNL1     0.1322
     17 O         -5.033968   0.741819   5.917464 O.3        1 UNL1     -0.4828
     18 C         -6.851857   2.203519   6.823766 C.ar        1 UNL1     -0.0067
     19 C         -6.486032   3.163019   5.857462 C.ar        1 UNL1     -0.0516
     20 C         -7.149878   4.393133   5.779421 C.ar        1 UNL1     -0.0198
     21 C         -8.174006   4.678081   6.664743 C.ar        1 UNL1     0.1169
     22 C         -8.579267   3.740274   7.605552 C.ar        1 UNL1     -0.0198
     23 C         -7.927829   2.502817   7.671764 C.ar        1 UNL1     -0.0516
     24 O         -8.772119   5.901198   6.583224 O.3        1 UNL1     -0.5068
     25 O         -8.735914   -0.954827   5.513603 O.2        1 UNL1     -0.2917
     26 O         -8.298678   -1.102307   2.857364 O.3        1 UNL1     -0.5058
     27 O         -1.162462   -0.652069   2.184816 O.3        1 UNL1     -0.3648
     28 O         -0.427936   -1.59301   -1.220663 O.3        1 UNL1     -0.3841
     29 O         -1.796952   1.650036   -0.542947 O.3        1 UNL1     -0.3863
     30 O         -3.399745   -1.362348   -1.905558 O.3        1 UNL1     -0.3829
     31 H         -0.917563   -2.271984   1.047325 H        1 UNL1     0.0937
     32 H         0.0   0.0   0.0 H        1 UNL1     0.0671
     33 H         -1.576186   0.351375   -2.075423 H        1 UNL1     0.0649
     34 H         -4.009397   0.515153   -1.344086 H        1 UNL1     0.0683
     35 H         -4.685383   -1.22982   0.240958 H        1 UNL1     0.1085
     36 H         -6.493103   -0.700128   1.100817 H        1 UNL1     0.0691
     37 H         -3.579476   0.942962   3.828679 H        1 UNL1     0.0691
     38 H         -6.364382   -1.244897   7.179827 H        1 UNL1     0.0385
     39 H         -7.740295   -0.264086   7.721504 H        1 UNL1     0.0385
     40 H         -5.527479   0.940651   7.867788 H        1 UNL1     0.0789
     41 H         -5.679389   2.967043   5.157054 H        1 UNL1     0.0623
     42 H         -6.850617   5.129483   5.037638 H        1 UNL1     0.0654
     43 H         -9.390044   3.94718   8.29384 H        1 UNL1     0.0654
     44 H         -8.277549   1.789793   8.412128 H        1 UNL1     0.0623
     45 H         -8.100208   6.582691   6.746993 H        1 UNL1     0.2921
     46 H         -8.439079   -1.906312   3.38203 H        1 UNL1     0.2922
     47 H         -0.208219   -0.52473   2.280024 H        1 UNL1     0.2126
     48 H         0.27978   -2.097455   -0.775234 H        1 UNL1     0.2101
     49 H         -0.95524   2.047107   -0.817993 H        1 UNL1     0.2100
     50 H         -3.266014   -1.020202   -2.813724 H        1 UNL1     0.2102
@<TRIPOS>BOND
     1     1     2    1
     2     1     6    1
     3     2     3    1
     4     3     4    1
     5     3    29    1
     6     3    33    1
     7     4     5    1
     8     5     6    1
     9     5     7    1
    10     5    35    1
    11     7     8    1
    12     8     9   ar
    13     8    13   ar
    14     9    10   ar
    15     9    36    1
    16    10    11   ar
    17    10    26    1
    18    11    12   ar
    19    11    14    1
    20    12    13   ar
    21    12    17    1
    22    13    37    1
    23    14    15    1
    24    14    25    2
    25    15    16    1
    26    15    38    1
    27    15    39    1
    28    16    17    1
    29    16    18    1
    30    16    40    1
    31    18    19   ar
    32    18    23   ar
    33    19    20   ar
    34    19    41    1
    35    20    21   ar
    36    20    42    1
    37    21    22   ar
    38    21    24    1
    39    22    23   ar
    40    22    43    1
    41    23    44    1
    42    24    45    1
    43    26    46    1
    44    27    47    1
    45    28    48    1
    46    29    49    1
    47    30    50    1
    48     1    31    1
    49     1    27    1
    50     2    32    1
    51     2    28    1
    52     4    34    1
    53     4    30    1
