@<TRIPOS>MOLECULE
*****
 50 53 0 0 0
SMALL
GASTEIGER

@<TRIPOS>ATOM
     1 C         -0.371054   -1.397585   1.637034 C.3        1 UNL1     0.1889
     2 C         -0.487883   -0.971268   0.148899 C.3        1 UNL1     0.1342
     3 C         -1.926304   -0.896695   -0.385749 C.3        1 UNL1     0.1174
     4 C         -2.841446   -1.962543   0.2222 C.3        1 UNL1     0.1456
     5 C         -2.695163   -2.063488   1.751505 C.3        1 UNL1     0.2326
     6 O         -1.337367   -2.332761   2.093191 O.3        1 UNL1     -0.3076
     7 O         -3.242481   -0.933817   2.455498 O.3        1 UNL1     -0.4605
     8 C         -3.77185   -1.197297   3.706048 C.ar        1 UNL1     0.1310
     9 C         -4.619597   -2.265473   4.018499 C.ar        1 UNL1     0.0226
     10 C         -5.090869   -2.457887   5.32264 C.ar        1 UNL1     0.1343
     11 C         -4.706293   -1.599642   6.351891 C.ar        1 UNL1     0.1007
     12 C         -3.893126   -0.505667   6.044056 C.ar        1 UNL1     0.1389
     13 C         -3.421532   -0.310895   4.732152 C.ar        1 UNL1     0.0229
     14 C         -5.106638   -1.804586   7.763229 C.2        1 UNL1     0.1740
     15 C         -4.424416   -0.921565   8.766421 C.3        1 UNL1     0.0520
     16 C         -4.312579   0.478445   8.178695 C.3        1 UNL1     0.1322
     17 O         -3.541875   0.461607   6.956892 O.3        1 UNL1     -0.4828
     18 C         -5.652137   1.21144   8.073681 C.ar        1 UNL1     -0.0067
     19 C         -5.900837   2.322269   8.905799 C.ar        1 UNL1     -0.0516
     20 C         -7.132953   2.985957   8.868765 C.ar        1 UNL1     -0.0198
     21 C         -8.124892   2.545006   8.011183 C.ar        1 UNL1     0.1169
     22 C         -7.898164   1.47473   7.155646 C.ar        1 UNL1     -0.0198
     23 C         -6.659656   0.822356   7.179302 C.ar        1 UNL1     -0.0516
     24 O         -9.325122   3.192693   8.029908 O.3        1 UNL1     -0.5068
     25 O         -5.882387   -2.685444   8.124877 O.2        1 UNL1     -0.2917
     26 O         -5.915618   -3.518349   5.560955 O.3        1 UNL1     -0.5058
     27 O         -0.239147   -0.303053   2.53 O.3        1 UNL1     -0.3648
     28 O         0.219629   -1.931391   -0.657511 O.3        1 UNL1     -0.3841
     29 O         -2.450117   0.425831   -0.249082 O.3        1 UNL1     -0.3863
     30 O         -2.525779   -3.245967   -0.359923 O.3        1 UNL1     -0.3829
     31 H         0.575785   -1.940026   1.733637 H        1 UNL1     0.0937
     32 H         0.0   0.0   0.0 H        1 UNL1     0.0671
     33 H         -1.892207   -1.086653   -1.467633 H        1 UNL1     0.0649
     34 H         -3.885872   -1.745407   -0.027655 H        1 UNL1     0.0683
     35 H         -3.273584   -2.958119   2.01408 H        1 UNL1     0.1085
     36 H         -4.909893   -2.999459   3.274784 H        1 UNL1     0.0691
     37 H         -2.790612   0.549151   4.518252 H        1 UNL1     0.0691
     38 H         -3.434791   -1.347358   8.963575 H        1 UNL1     0.0385
     39 H         -4.994493   -0.933686   9.701645 H        1 UNL1     0.0385
     40 H         -3.708809   1.074945   8.875954 H        1 UNL1     0.0789
     41 H         -5.141753   2.682189   9.594203 H        1 UNL1     0.0623
     42 H         -7.316783   3.83392   9.523881 H        1 UNL1     0.0654
     43 H         -8.662725   1.130582   6.46941 H        1 UNL1     0.0654
     44 H         -6.513413   -0.003437   6.48972 H        1 UNL1     0.0623
     45 H         -9.352228   3.809978   7.280948 H        1 UNL1     0.2921
     46 H         -5.702418   -3.906378   6.424316 H        1 UNL1     0.2922
     47 H         0.601313   0.151938   2.3801 H        1 UNL1     0.2126
     48 H         -0.180366   -1.897783   -1.547795 H        1 UNL1     0.2101
     49 H         -2.99877   0.482603   0.549386 H        1 UNL1     0.2100
     50 H         -1.581124   -3.434008   -0.181095 H        1 UNL1     0.2102
@<TRIPOS>BOND
     1     1     2    1
     2     1     6    1
     3     2     3    1
     4     3     4    1
     5     3    29    1
     6     3    33    1
     7     4     5    1
     8     5     6    1
     9     5     7    1
    10     5    35    1
    11     7     8    1
    12     8     9   ar
    13     8    13   ar
    14     9    10   ar
    15     9    36    1
    16    10    11   ar
    17    10    26    1
    18    11    12   ar
    19    11    14    1
    20    12    13   ar
    21    12    17    1
    22    13    37    1
    23    14    15    1
    24    14    25    2
    25    15    16    1
    26    15    38    1
    27    15    39    1
    28    16    17    1
    29    16    18    1
    30    16    40    1
    31    18    19   ar
    32    18    23   ar
    33    19    20   ar
    34    19    41    1
    35    20    21   ar
    36    20    42    1
    37    21    22   ar
    38    21    24    1
    39    22    23   ar
    40    22    43    1
    41    23    44    1
    42    24    45    1
    43    26    46    1
    44    27    47    1
    45    28    48    1
    46    29    49    1
    47    30    50    1
    48     1    31    1
    49     1    27    1
    50     2    32    1
    51     2    28    1
    52     4    34    1
    53     4    30    1
