@<TRIPOS>MOLECULE
*****
 50 53 0 0 0
SMALL
GASTEIGER

@<TRIPOS>ATOM
     1 C         -0.337739   -1.334336   1.695961 C.3        1 UNL1     0.1889
     2 C         -0.465396   -0.9749   0.191152 C.3        1 UNL1     0.1342
     3 C         -1.90554   -0.95618   -0.343731 C.3        1 UNL1     0.1174
     4 C         -2.795579   -2.015661   0.310828 C.3        1 UNL1     0.1456
     5 C         -2.645899   -2.047674   1.842799 C.3        1 UNL1     0.2326
     6 O         -1.28204   -2.270968   2.193365 O.3        1 UNL1     -0.3076
     7 O         -3.218435   -0.901704   2.498754 O.3        1 UNL1     -0.4605
     8 C         -3.730525   -1.120978   3.764934 C.ar        1 UNL1     0.1310
     9 C         -4.550428   -2.193181   4.132954 C.ar        1 UNL1     0.0226
     10 C         -5.00562   -2.337754   5.448933 C.ar        1 UNL1     0.1343
     11 C         -4.632072   -1.425753   6.435116 C.ar        1 UNL1     0.1007
     12 C         -3.847297   -0.328367   6.070899 C.ar        1 UNL1     0.1389
     13 C         -3.391906   -0.181779   4.747055 C.ar        1 UNL1     0.0229
     14 C         -5.015125   -1.576424   7.858044 C.2        1 UNL1     0.1740
     15 C         -4.344828   -0.634046   8.814169 C.3        1 UNL1     0.0520
     16 C         -4.270741   0.740449   8.163607 C.3        1 UNL1     0.1322
     17 O         -3.510621   0.686556   6.936259 O.3        1 UNL1     -0.4828
     18 C         -5.62785   1.437231   8.03921 C.ar        1 UNL1     -0.0067
     19 C         -6.00245   2.008703   6.805796 C.ar        1 UNL1     -0.0516
     20 C         -7.215585   2.69428   6.670703 C.ar        1 UNL1     -0.0198
     21 C         -8.057586   2.821355   7.760984 C.ar        1 UNL1     0.1169
     22 C         -7.731761   2.240714   8.979809 C.ar        1 UNL1     -0.0198
     23 C         -6.527199   1.539237   9.110265 C.ar        1 UNL1     -0.0516
     24 O         -9.213033   3.528405   7.601541 O.3        1 UNL1     -0.5068
     25 O         -5.766976   -2.457699   8.26616 O.2        1 UNL1     -0.2917
     26 O         -5.803364   -3.405045   5.742326 O.3        1 UNL1     -0.5058
     27 O         -0.230285   -0.199851   2.541055 O.3        1 UNL1     -0.3648
     28 O         0.263333   -1.952244   -0.574654 O.3        1 UNL1     -0.3841
     29 O         -2.459411   0.358667   -0.262873 O.3        1 UNL1     -0.3863
     30 O         -2.451021   -3.315279   -0.216394 O.3        1 UNL1     -0.3829
     31 H         0.621349   -1.850362   1.81406 H        1 UNL1     0.0937
     32 H         0.0   0.0   0.0 H        1 UNL1     0.0671
     33 H         -1.867893   -1.191451   -1.416554 H        1 UNL1     0.0649
     34 H         -3.844888   -1.833349   0.053703 H        1 UNL1     0.0683
     35 H         -3.203481   -2.943229   2.144399 H        1 UNL1     0.1085
     36 H         -4.830105   -2.96615   3.42555 H        1 UNL1     0.0691
     37 H         -2.783057   0.682016   4.488881 H        1 UNL1     0.0691
     38 H         -3.343877   -1.027882   9.020365 H        1 UNL1     0.0385
     39 H         -4.906229   -0.61732   9.754556 H        1 UNL1     0.0385
     40 H         -3.674899   1.381184   8.827648 H        1 UNL1     0.0789
     41 H         -5.354791   1.930644   5.93741 H        1 UNL1     0.0623
     42 H         -7.487713   3.140795   5.717507 H        1 UNL1     0.0654
     43 H         -8.390786   2.321256   9.836027 H        1 UNL1     0.0654
     44 H         -6.309539   1.089319   10.074134 H        1 UNL1     0.0623
     45 H         -8.983765   4.439147   7.355164 H        1 UNL1     0.2921
     46 H         -5.402622   -3.920944   6.459728 H        1 UNL1     0.2922
     47 H         0.512881   0.354367   2.264637 H        1 UNL1     0.2126
     48 H         1.198879   -1.878444   -0.304396 H        1 UNL1     0.2101
     49 H         -2.020172   0.941691   -0.902362 H        1 UNL1     0.2100
     50 H         -2.688388   -3.327714   -1.16677 H        1 UNL1     0.2102
@<TRIPOS>BOND
     1     1     2    1
     2     1     6    1
     3     2     3    1
     4     3     4    1
     5     3    29    1
     6     3    33    1
     7     4     5    1
     8     5     6    1
     9     5     7    1
    10     5    35    1
    11     7     8    1
    12     8     9   ar
    13     8    13   ar
    14     9    10   ar
    15     9    36    1
    16    10    11   ar
    17    10    26    1
    18    11    12   ar
    19    11    14    1
    20    12    13   ar
    21    12    17    1
    22    13    37    1
    23    14    15    1
    24    14    25    2
    25    15    16    1
    26    15    38    1
    27    15    39    1
    28    16    17    1
    29    16    18    1
    30    16    40    1
    31    18    19   ar
    32    18    23   ar
    33    19    20   ar
    34    19    41    1
    35    20    21   ar
    36    20    42    1
    37    21    22   ar
    38    21    24    1
    39    22    23   ar
    40    22    43    1
    41    23    44    1
    42    24    45    1
    43    26    46    1
    44    27    47    1
    45    28    48    1
    46    29    49    1
    47    30    50    1
    48     1    31    1
    49     1    27    1
    50     2    32    1
    51     2    28    1
    52     4    34    1
    53     4    30    1
