@<TRIPOS>MOLECULE
*****
 50 53 0 0 0
SMALL
GASTEIGER

@<TRIPOS>ATOM
     1 C         -0.333294   -1.328592   1.701342 C.3        1 UNL1     0.1889
     2 C         -0.463228   -0.975106   0.195319 C.3        1 UNL1     0.1342
     3 C         -1.903957   -0.961313   -0.338136 C.3        1 UNL1     0.1174
     4 C         -2.791179   -2.020105   0.321346 C.3        1 UNL1     0.1456
     5 C         -2.639856   -2.046022   1.853271 C.3        1 UNL1     0.2326
     6 O         -1.275188   -2.265238   2.203262 O.3        1 UNL1     -0.3076
     7 O         -3.21403   -0.898737   2.505484 O.3        1 UNL1     -0.4605
     8 C         -3.723945   -1.114148   3.773204 C.ar        1 UNL1     0.1310
     9 C         -4.541   -2.186688   4.146539 C.ar        1 UNL1     0.0226
     10 C         -4.994115   -2.327078   5.463687 C.ar        1 UNL1     0.1343
     11 C         -4.621254   -1.410388   6.445774 C.ar        1 UNL1     0.1007
     12 C         -3.839376   -0.312727   6.07619 C.ar        1 UNL1     0.1389
     13 C         -3.386078   -0.170352   4.751169 C.ar        1 UNL1     0.0229
     14 C         -5.002074   -1.556297   7.869796 C.2        1 UNL1     0.1740
     15 C         -4.332571   -0.6087   8.821307 C.3        1 UNL1     0.0520
     16 C         -4.262371   0.763384   8.165247 C.3        1 UNL1     0.1322
     17 O         -3.503774   0.706328   6.937099 O.3        1 UNL1     -0.4828
     18 C         -5.621171   1.456697   8.039935 C.ar        1 UNL1     -0.0067
     19 C         -5.999902   2.019936   6.803999 C.ar        1 UNL1     -0.0516
     20 C         -7.214733   2.702266   6.667709 C.ar        1 UNL1     -0.0198
     21 C         -8.054343   2.834272   7.759247 C.ar        1 UNL1     0.1169
     22 C         -7.724403   2.26168   8.98077 C.ar        1 UNL1     -0.0198
     23 C         -6.518126   1.563405   9.11254 C.ar        1 UNL1     -0.0516
     24 O         -9.211588   3.538042   7.598338 O.3        1 UNL1     -0.5068
     25 O         -5.751442   -2.437605   8.282385 O.2        1 UNL1     -0.2917
     26 O         -5.789121   -3.394951   5.762346 O.3        1 UNL1     -0.5058
     27 O         -0.227261   -0.190705   2.54203 O.3        1 UNL1     -0.3648
     28 O         0.266684   -1.953868   -0.567545 O.3        1 UNL1     -0.3841
     29 O         -2.4604   0.35271   -0.261672 O.3        1 UNL1     -0.3863
     30 O         -2.44454   -3.32101   -0.201317 O.3        1 UNL1     -0.3829
     31 H         0.626955   -1.842232   1.820394 H        1 UNL1     0.0937
     32 H         0.0   0.0   0.0 H        1 UNL1     0.0671
     33 H         -1.866941   -1.200563   -1.410101 H        1 UNL1     0.0649
     34 H         -3.841118   -1.840882   0.064623 H        1 UNL1     0.0683
     35 H         -3.195316   -2.941553   2.158833 H        1 UNL1     0.1085
     36 H         -4.819924   -2.963045   3.442556 H        1 UNL1     0.0691
     37 H         -2.779472   0.693752   4.488782 H        1 UNL1     0.0691
     38 H         -3.330483   -0.999528   9.027704 H        1 UNL1     0.0385
     39 H         -4.89275   -0.589502   9.762375 H        1 UNL1     0.0385
     40 H         -3.66705   1.408031   8.825962 H        1 UNL1     0.0789
     41 H         -5.354193   1.937903   5.934527 H        1 UNL1     0.0623
     42 H         -7.490064   3.142452   5.712492 H        1 UNL1     0.0654
     43 H         -8.381513   2.346099   9.838085 H        1 UNL1     0.0654
     44 H         -6.297229   1.119772   10.078583 H        1 UNL1     0.0623
     45 H         -9.958582   2.94744   7.787829 H        1 UNL1     0.2921
     46 H         -5.384954   -3.908651   6.479405 H        1 UNL1     0.2922
     47 H         0.516295   0.362459   2.264555 H        1 UNL1     0.2126
     48 H         1.199424   -1.889574   -0.285418 H        1 UNL1     0.2101
     49 H         -2.020917   0.934955   -0.901703 H        1 UNL1     0.2100
     50 H         -2.67764   -3.335593   -1.152719 H        1 UNL1     0.2102
@<TRIPOS>BOND
     1     1     2    1
     2     1     6    1
     3     2     3    1
     4     3     4    1
     5     3    29    1
     6     3    33    1
     7     4     5    1
     8     5     6    1
     9     5     7    1
    10     5    35    1
    11     7     8    1
    12     8     9   ar
    13     8    13   ar
    14     9    10   ar
    15     9    36    1
    16    10    11   ar
    17    10    26    1
    18    11    12   ar
    19    11    14    1
    20    12    13   ar
    21    12    17    1
    22    13    37    1
    23    14    15    1
    24    14    25    2
    25    15    16    1
    26    15    38    1
    27    15    39    1
    28    16    17    1
    29    16    18    1
    30    16    40    1
    31    18    19   ar
    32    18    23   ar
    33    19    20   ar
    34    19    41    1
    35    20    21   ar
    36    20    42    1
    37    21    22   ar
    38    21    24    1
    39    22    23   ar
    40    22    43    1
    41    23    44    1
    42    24    45    1
    43    26    46    1
    44    27    47    1
    45    28    48    1
    46    29    49    1
    47    30    50    1
    48     1    31    1
    49     1    27    1
    50     2    32    1
    51     2    28    1
    52     4    34    1
    53     4    30    1
