@<TRIPOS>MOLECULE
*****
 50 53 0 0 0
SMALL
GASTEIGER

@<TRIPOS>ATOM
     1 C         -0.390238   -1.398577   1.631717 C.3        1 UNL1     0.1889
     2 C         -0.426079   -1.002406   0.131149 C.3        1 UNL1     0.1342
     3 C         -1.82214   -1.041197   -0.509143 C.3        1 UNL1     0.1174
     4 C         -2.700619   -2.163078   0.050119 C.3        1 UNL1     0.1456
     5 C         -2.662106   -2.23206   1.587689 C.3        1 UNL1     0.2326
     6 O         -1.317724   -2.395995   2.033368 O.3        1 UNL1     -0.3076
     7 O         -3.340809   -1.136201   2.227826 O.3        1 UNL1     -0.4605
     8 C         -3.932011   -1.417953   3.446277 C.ar        1 UNL1     0.1310
     9 C         -4.718977   -2.54063   3.724809 C.ar        1 UNL1     0.0226
     10 C         -5.261103   -2.746374   4.999043 C.ar        1 UNL1     0.1343
     11 C         -5.009439   -1.845706   6.033115 C.ar        1 UNL1     0.1007
     12 C         -4.259065   -0.699781   5.756388 C.ar        1 UNL1     0.1389
     13 C         -3.716272   -0.491787   4.474379 C.ar        1 UNL1     0.0229
     14 C         -5.487235   -2.056992   7.419197 C.2        1 UNL1     0.1740
     15 C         -4.939434   -1.110071   8.446233 C.3        1 UNL1     0.0520
     16 C         -4.890484   0.284776   7.837987 C.3        1 UNL1     0.1322
     17 O         -4.0407   0.30528   6.669862 O.3        1 UNL1     -0.4828
     18 C         -6.269689   0.915143   7.630252 C.ar        1 UNL1     -0.0067
     19 C         -6.582864   1.501729   6.386848 C.ar        1 UNL1     -0.0516
     20 C         -7.817309   2.128511   6.178874 C.ar        1 UNL1     -0.0198
     21 C         -8.742126   2.181707   7.206352 C.ar        1 UNL1     0.1169
     22 C         -8.475981   1.583912   8.43136 C.ar        1 UNL1     -0.0198
     23 C         -7.2489   0.940954   8.633683 C.ar        1 UNL1     -0.0516
     24 O         -9.918471   2.833542   6.97892 O.3        1 UNL1     -0.5068
     25 O         -6.219434   -2.986785   7.74761 O.2        1 UNL1     -0.2917
     26 O         -6.02079   -3.860851   5.204958 O.3        1 UNL1     -0.5058
     27 O         -0.40498   -0.285196   2.510894 O.3        1 UNL1     -0.3648
     28 O         0.407333   -1.918806   -0.602569 O.3        1 UNL1     -0.3841
     29 O         -2.449026   0.240946   -0.436648 O.3        1 UNL1     -0.3863
     30 O         -2.250291   -3.427637   -0.482595 O.3        1 UNL1     -0.3829
     31 H         0.583498   -1.868506   1.808021 H        1 UNL1     0.0937
     32 H         0.0   0.0   0.0 H        1 UNL1     0.0671
     33 H         -1.693635   -1.242911   -1.581765 H        1 UNL1     0.0649
     34 H         -3.736421   -2.026819   -0.279956 H        1 UNL1     0.0683
     35 H         -3.192272   -3.163151   1.824065 H        1 UNL1     0.1085
     36 H         -4.904911   -3.305862   2.979175 H        1 UNL1     0.0691
     37 H         -3.136555   0.408934   4.284321 H        1 UNL1     0.0691
     38 H         -3.936905   -1.458461   8.716577 H        1 UNL1     0.0385
     39 H         -5.568324   -1.14924   9.342192 H        1 UNL1     0.0385
     40 H         -4.379523   0.935301   8.560661 H        1 UNL1     0.0789
     41 H         -5.870369   1.48131   5.567346 H        1 UNL1     0.0623
     42 H         -8.042295   2.587578   5.219369 H        1 UNL1     0.0654
     43 H         -9.199039   1.60658   9.237947 H        1 UNL1     0.0654
     44 H         -7.07876   0.475426   9.599696 H        1 UNL1     0.0623
     45 H         -9.719597   3.759393   6.764527 H        1 UNL1     0.2921
     46 H         -5.646238   -4.377142   5.936098 H        1 UNL1     0.2922
     47 H         0.327803   0.312438   2.306631 H        1 UNL1     0.2126
     48 H         1.312305   -1.817747   -0.249658 H        1 UNL1     0.2101
     49 H         -1.993762   0.8646   -1.024512 H        1 UNL1     0.2100
     50 H         -2.411202   -3.422196   -1.448924 H        1 UNL1     0.2102
@<TRIPOS>BOND
     1     1     2    1
     2     1     6    1
     3     2     3    1
     4     3     4    1
     5     3    29    1
     6     3    33    1
     7     4     5    1
     8     5     6    1
     9     5     7    1
    10     5    35    1
    11     7     8    1
    12     8     9   ar
    13     8    13   ar
    14     9    10   ar
    15     9    36    1
    16    10    11   ar
    17    10    26    1
    18    11    12   ar
    19    11    14    1
    20    12    13   ar
    21    12    17    1
    22    13    37    1
    23    14    15    1
    24    14    25    2
    25    15    16    1
    26    15    38    1
    27    15    39    1
    28    16    17    1
    29    16    18    1
    30    16    40    1
    31    18    19   ar
    32    18    23   ar
    33    19    20   ar
    34    19    41    1
    35    20    21   ar
    36    20    42    1
    37    21    22   ar
    38    21    24    1
    39    22    23   ar
    40    22    43    1
    41    23    44    1
    42    24    45    1
    43    26    46    1
    44    27    47    1
    45    28    48    1
    46    29    49    1
    47    30    50    1
    48     1    31    1
    49     1    27    1
    50     2    32    1
    51     2    28    1
    52     4    34    1
    53     4    30    1
