@<TRIPOS>MOLECULE
*****
 50 53 0 0 0
SMALL
GASTEIGER

@<TRIPOS>ATOM
     1 C         -0.33685   -1.331119   1.698664 C.3        1 UNL1     0.1889
     2 C         -0.464871   -0.974755   0.193155 C.3        1 UNL1     0.1342
     3 C         -1.905088   -0.957845   -0.341591 C.3        1 UNL1     0.1174
     4 C         -2.794503   -2.016475   0.31519 C.3        1 UNL1     0.1456
     5 C         -2.644625   -2.04535   1.847204 C.3        1 UNL1     0.2326
     6 O         -1.280609   -2.267241   2.198052 O.3        1 UNL1     -0.3076
     7 O         -3.217673   -0.898367   2.500937 O.3        1 UNL1     -0.4605
     8 C         -3.729498   -1.115374   3.767614 C.ar        1 UNL1     0.1310
     9 C         -4.548629   -2.187379   4.137925 C.ar        1 UNL1     0.0226
     10 C         -5.003604   -2.329544   5.454242 C.ar        1 UNL1     0.1343
     11 C         -4.630598   -1.415247   6.438503 C.ar        1 UNL1     0.1007
     12 C         -3.846613   -0.318075   6.071945 C.ar        1 UNL1     0.1389
     13 C         -3.391442   -0.173912   4.747759 C.ar        1 UNL1     0.0229
     14 C         -5.013421   -1.563238   7.861773 C.2        1 UNL1     0.1740
     15 C         -4.34369   -0.618422   8.815886 C.3        1 UNL1     0.0520
     16 C         -4.27061   0.754776   8.162475 C.3        1 UNL1     0.1322
     17 O         -3.510562   0.698868   6.935173 O.3        1 UNL1     -0.4828
     18 C         -5.628211   1.450361   8.036759 C.ar        1 UNL1     -0.0067
     19 C         -6.003315   2.019022   6.8022 C.ar        1 UNL1     -0.0516
     20 C         -7.216935   2.70348   6.665798 C.ar        1 UNL1     -0.0198
     21 C         -8.058927   2.832229   7.75589 C.ar        1 UNL1     0.1169
     22 C         -7.732592   2.254336   8.975884 C.ar        1 UNL1     -0.0198
     23 C         -6.527536   1.553963   9.107683 C.ar        1 UNL1     -0.0516
     24 O         -9.214876   3.53815   7.595088 O.3        1 UNL1     -0.5068
     25 O         -5.764627   -2.444186   8.27178 O.2        1 UNL1     -0.2917
     26 O         -5.800585   -3.396776   5.749914 O.3        1 UNL1     -0.5058
     27 O         -0.229879   -0.194892   2.541477 O.3        1 UNL1     -0.3648
     28 O         0.26427   -1.953252   -0.570784 O.3        1 UNL1     -0.3841
     29 O         -2.459626   0.356875   -0.263293 O.3        1 UNL1     -0.3863
     30 O         -2.449339   -3.316966   -0.209476 O.3        1 UNL1     -0.3829
     31 H         0.622518   -1.846414   1.817678 H        1 UNL1     0.0937
     32 H         0.0   0.0   0.0 H        1 UNL1     0.0671
     33 H         -1.867448   -1.19524   -1.413947 H        1 UNL1     0.0649
     34 H         -3.843937   -1.835217   0.057827 H        1 UNL1     0.0683
     35 H         -3.201709   -2.940588   2.15066 H        1 UNL1     0.1085
     36 H         -4.827834   -2.962003   3.432148 H        1 UNL1     0.0691
     37 H         -2.783212   0.689768   4.487744 H        1 UNL1     0.0691
     38 H         -3.342449   -1.011139   9.022807 H        1 UNL1     0.0385
     39 H         -4.905019   -0.600137   9.756288 H        1 UNL1     0.0385
     40 H         -3.675152   1.397294   8.825136 H        1 UNL1     0.0789
     41 H         -5.355679   1.939614   5.933918 H        1 UNL1     0.0623
     42 H         -7.489456   3.147835   5.711705 H        1 UNL1     0.0654
     43 H         -8.391598   2.336195   9.831992 H        1 UNL1     0.0654
     44 H         -6.309479   1.10619   10.07246 H        1 UNL1     0.0623
     45 H         -8.986326   4.447807   7.344078 H        1 UNL1     0.2921
     46 H         -5.398733   -3.91169   6.467403 H        1 UNL1     0.2922
     47 H         0.512968   0.359155   2.263863 H        1 UNL1     0.2126
     48 H         1.197986   -1.88622   -0.292551 H        1 UNL1     0.2101
     49 H         -2.018861   0.939534   -0.902064 H        1 UNL1     0.2100
     50 H         -2.681588   -3.329504   -1.161114 H        1 UNL1     0.2102
@<TRIPOS>BOND
     1     1     2    1
     2     1     6    1
     3     2     3    1
     4     3     4    1
     5     3    29    1
     6     3    33    1
     7     4     5    1
     8     5     6    1
     9     5     7    1
    10     5    35    1
    11     7     8    1
    12     8     9   ar
    13     8    13   ar
    14     9    10   ar
    15     9    36    1
    16    10    11   ar
    17    10    26    1
    18    11    12   ar
    19    11    14    1
    20    12    13   ar
    21    12    17    1
    22    13    37    1
    23    14    15    1
    24    14    25    2
    25    15    16    1
    26    15    38    1
    27    15    39    1
    28    16    17    1
    29    16    18    1
    30    16    40    1
    31    18    19   ar
    32    18    23   ar
    33    19    20   ar
    34    19    41    1
    35    20    21   ar
    36    20    42    1
    37    21    22   ar
    38    21    24    1
    39    22    23   ar
    40    22    43    1
    41    23    44    1
    42    24    45    1
    43    26    46    1
    44    27    47    1
    45    28    48    1
    46    29    49    1
    47    30    50    1
    48     1    31    1
    49     1    27    1
    50     2    32    1
    51     2    28    1
    52     4    34    1
    53     4    30    1
