@<TRIPOS>MOLECULE
*****
 50 53 0 0 0
SMALL
GASTEIGER

@<TRIPOS>ATOM
     1 C         0.314501   -2.161182   -0.034437 C.3        1 UNL1     0.1889
     2 C         -0.386337   -0.889054   0.513701 C.3        1 UNL1     0.1342
     3 C         -0.254662   -0.687829   2.031145 C.3        1 UNL1     0.1174
     4 C         -0.256054   -2.007279   2.807139 C.3        1 UNL1     0.1456
     5 C         0.678274   -3.05994   2.183201 C.3        1 UNL1     0.2326
     6 O         0.311336   -3.291526   0.825043 O.3        1 UNL1     -0.3076
     7 O         2.075332   -2.755954   2.347952 O.3        1 UNL1     -0.4605
     8 C         2.905422   -3.137933   1.309409 C.ar        1 UNL1     0.1310
     9 C         4.285441   -3.345004   1.409248 C.ar        1 UNL1     0.0226
     10 C         5.038774   -3.748802   0.300492 C.ar        1 UNL1     0.1343
     11 C         4.425834   -3.978586   -0.930502 C.ar        1 UNL1     0.1007
     12 C         3.05515   -3.735551   -1.052746 C.ar        1 UNL1     0.1389
     13 C         2.298348   -3.326987   0.061595 C.ar        1 UNL1     0.0229
     14 C         5.159266   -4.486555   -2.112956 C.2        1 UNL1     0.1740
     15 C         4.308214   -4.88762   -3.281889 C.3        1 UNL1     0.0520
     16 C         3.186527   -3.869327   -3.43307 C.3        1 UNL1     0.1322
     17 O         2.369927   -3.82535   -2.242146 O.3        1 UNL1     -0.4828
     18 C         3.659513   -2.50066   -3.92881 C.ar        1 UNL1     -0.0067
     19 C         4.162677   -2.374995   -5.240011 C.ar        1 UNL1     -0.0516
     20 C         4.647375   -1.148137   -5.708893 C.ar        1 UNL1     -0.0198
     21 C         4.641156   -0.043738   -4.875772 C.ar        1 UNL1     0.1169
     22 C         4.121198   -0.128047   -3.590714 C.ar        1 UNL1     -0.0198
     23 C         3.619436   -1.35035   -3.127825 C.ar        1 UNL1     -0.0516
     24 O         5.156152   1.125073   -5.354374 O.3        1 UNL1     -0.5068
     25 O         6.37576   -4.654537   -2.133215 O.2        1 UNL1     -0.2917
     26 O         6.380824   -3.932286   0.464256 O.3        1 UNL1     -0.5058
     27 O         1.605986   -1.91072   -0.565589 O.3        1 UNL1     -0.3648
     28 O         -1.791636   -0.977358   0.21363 O.3        1 UNL1     -0.3841
     29 O         0.873997   0.133323   2.337691 O.3        1 UNL1     -0.3863
     30 O         -1.598872   -2.537984   2.836839 O.3        1 UNL1     -0.3829
     31 H         -0.27213   -2.494191   -0.897598 H        1 UNL1     0.0937
     32 H         0.0   0.0   0.0 H        1 UNL1     0.0671
     33 H         -1.130831   -0.11824   2.37117 H        1 UNL1     0.0649
     34 H         0.041673   -1.830159   3.846556 H        1 UNL1     0.0683
     35 H         0.448467   -3.978943   2.736828 H        1 UNL1     0.1085
     36 H         4.811489   -3.237416   2.35149 H        1 UNL1     0.0691
     37 H         1.232996   -3.143386   -0.060096 H        1 UNL1     0.0691
     38 H         3.909612   -5.88636   -3.074137 H        1 UNL1     0.0385
     39 H         4.935137   -4.949135   -4.17797 H        1 UNL1     0.0385
     40 H         2.512069   -4.244338   -4.214731 H        1 UNL1     0.0789
     41 H         4.186855   -3.229176   -5.910414 H        1 UNL1     0.0623
     42 H         5.043788   -1.066844   -6.717982 H        1 UNL1     0.0654
     43 H         4.097655   0.73421   -2.93507 H        1 UNL1     0.0654
     44 H         3.211057   -1.377448   -2.122172 H        1 UNL1     0.0623
     45 H         4.611136   1.416484   -6.103208 H        1 UNL1     0.2921
     46 H         6.5772   -4.882221   0.486001 H        1 UNL1     0.2922
     47 H         2.272968   -1.973389   0.132313 H        1 UNL1     0.2126
     48 H         -2.267638   -0.68844   1.015927 H        1 UNL1     0.2101
     49 H         0.962735   0.834092   1.672227 H        1 UNL1     0.2100
     50 H         -2.175678   -1.9272   2.332905 H        1 UNL1     0.2102
@<TRIPOS>BOND
     1     1     2    1
     2     1     6    1
     3     2     3    1
     4     3     4    1
     5     3    29    1
     6     3    33    1
     7     4     5    1
     8     5     6    1
     9     5     7    1
    10     5    35    1
    11     7     8    1
    12     8     9   ar
    13     8    13   ar
    14     9    10   ar
    15     9    36    1
    16    10    11   ar
    17    10    26    1
    18    11    12   ar
    19    11    14    1
    20    12    13   ar
    21    12    17    1
    22    13    37    1
    23    14    15    1
    24    14    25    2
    25    15    16    1
    26    15    38    1
    27    15    39    1
    28    16    17    1
    29    16    18    1
    30    16    40    1
    31    18    19   ar
    32    18    23   ar
    33    19    20   ar
    34    19    41    1
    35    20    21   ar
    36    20    42    1
    37    21    22   ar
    38    21    24    1
    39    22    23   ar
    40    22    43    1
    41    23    44    1
    42    24    45    1
    43    26    46    1
    44    27    47    1
    45    28    48    1
    46    29    49    1
    47    30    50    1
    48     1    31    1
    49     1    27    1
    50     2    32    1
    51     2    28    1
    52     4    34    1
    53     4    30    1
