@<TRIPOS>MOLECULE
*****
 50 53 0 0 0
SMALL
GASTEIGER

@<TRIPOS>ATOM
     1 C         0.556957   1.403152   1.578534 C.3        1 UNL1     0.1889
     2 C         0.542068   -0.017838   0.953627 C.3        1 UNL1     0.1342
     3 C         -0.061611   -1.107517   1.852869 C.3        1 UNL1     0.1174
     4 C         0.233747   -0.882464   3.337871 C.3        1 UNL1     0.1456
     5 C         -0.021031   0.571128   3.776643 C.3        1 UNL1     0.2326
     6 O         0.759062   1.462299   2.982831 O.3        1 UNL1     -0.3076
     7 O         -1.416287   0.921925   3.815672 O.3        1 UNL1     -0.4605
     8 C         -1.700249   2.250791   4.074537 C.ar        1 UNL1     0.1310
     9 C         -1.203884   2.990212   5.153507 C.ar        1 UNL1     0.0226
     10 C         -1.537162   4.339636   5.320488 C.ar        1 UNL1     0.1343
     11 C         -2.356621   4.989369   4.398439 C.ar        1 UNL1     0.1007
     12 C         -2.891452   4.250826   3.339527 C.ar        1 UNL1     0.1389
     13 C         -2.558317   2.893319   3.173317 C.ar        1 UNL1     0.0229
     14 C         -2.672971   6.434162   4.479995 C.2        1 UNL1     0.1740
     15 C         -3.380011   7.012222   3.289411 C.3        1 UNL1     0.0520
     16 C         -4.419814   6.007797   2.812024 C.3        1 UNL1     0.1322
     17 O         -3.793809   4.76144   2.435486 O.3        1 UNL1     -0.4828
     18 C         -5.612275   5.857825   3.759794 C.ar        1 UNL1     -0.0067
     19 C         -5.848984   4.615752   4.383843 C.ar        1 UNL1     -0.0516
     20 C         -6.957344   4.431103   5.21895 C.ar        1 UNL1     -0.0198
     21 C         -7.838465   5.476183   5.431694 C.ar        1 UNL1     0.1169
     22 C         -7.613825   6.720817   4.857881 C.ar        1 UNL1     -0.0198
     23 C         -6.495439   6.911065   4.03747 C.ar        1 UNL1     -0.0516
     24 O         -8.927319   5.248066   6.220846 O.3        1 UNL1     -0.5068
     25 O         -2.320441   7.151908   5.412223 O.2        1 UNL1     -0.2917
     26 O         -1.020667   5.003856   6.39456 O.3        1 UNL1     -0.5058
     27 O         -0.536324   2.210904   1.172259 O.3        1 UNL1     -0.3648
     28 O         1.89882   -0.403507   0.6652 O.3        1 UNL1     -0.3841
     29 O         -1.455594   -1.271615   1.584514 O.3        1 UNL1     -0.3863
     30 O         1.61508   -1.211418   3.601304 O.3        1 UNL1     -0.3829
     31 H         1.436043   1.914672   1.171553 H        1 UNL1     0.0937
     32 H         0.0   0.0   0.0 H        1 UNL1     0.0671
     33 H         0.403099   -2.064682   1.577913 H        1 UNL1     0.0649
     34 H         -0.378163   -1.556716   3.947257 H        1 UNL1     0.0683
     35 H         0.383354   0.614574   4.795693 H        1 UNL1     0.1085
     36 H         -0.517701   2.557877   5.87348 H        1 UNL1     0.0691
     37 H         -2.988815   2.340254   2.341281 H        1 UNL1     0.0691
     38 H         -2.627467   7.199423   2.516003 H        1 UNL1     0.0385
     39 H         -3.8288   7.971412   3.569271 H        1 UNL1     0.0385
     40 H         -4.840414   6.397781   1.875259 H        1 UNL1     0.0789
     41 H         -5.177185   3.777126   4.225593 H        1 UNL1     0.0623
     42 H         -7.135553   3.465117   5.684917 H        1 UNL1     0.0654
     43 H         -8.289242   7.550367   5.029842 H        1 UNL1     0.0654
     44 H         -6.345109   7.899486   3.614067 H        1 UNL1     0.0623
     45 H         -8.930892   5.90491   6.935871 H        1 UNL1     0.2921
     46 H         -1.543539   4.796556   7.185157 H        1 UNL1     0.2922
     47 H         -0.605943   2.219448   0.207407 H        1 UNL1     0.2126
     48 H         1.906683   -1.378496   0.609816 H        1 UNL1     0.2101
     49 H         -1.679057   -2.215803   1.565305 H        1 UNL1     0.2100
     50 H         1.76901   -2.130563   3.299326 H        1 UNL1     0.2102
@<TRIPOS>BOND
     1     1     2    1
     2     1     6    1
     3     2     3    1
     4     3     4    1
     5     3    29    1
     6     3    33    1
     7     4     5    1
     8     5     6    1
     9     5     7    1
    10     5    35    1
    11     7     8    1
    12     8     9   ar
    13     8    13   ar
    14     9    10   ar
    15     9    36    1
    16    10    11   ar
    17    10    26    1
    18    11    12   ar
    19    11    14    1
    20    12    13   ar
    21    12    17    1
    22    13    37    1
    23    14    15    1
    24    14    25    2
    25    15    16    1
    26    15    38    1
    27    15    39    1
    28    16    17    1
    29    16    18    1
    30    16    40    1
    31    18    19   ar
    32    18    23   ar
    33    19    20   ar
    34    19    41    1
    35    20    21   ar
    36    20    42    1
    37    21    22   ar
    38    21    24    1
    39    22    23   ar
    40    22    43    1
    41    23    44    1
    42    24    45    1
    43    26    46    1
    44    27    47    1
    45    28    48    1
    46    29    49    1
    47    30    50    1
    48     1    31    1
    49     1    27    1
    50     2    32    1
    51     2    28    1
    52     4    34    1
    53     4    30    1
