@<TRIPOS>MOLECULE
*****
 50 53 0 0 0
SMALL
GASTEIGER

@<TRIPOS>ATOM
     1 C         -0.32878   -1.328129   1.702581 C.3        1 UNL1     0.1889
     2 C         -0.461209   -0.975826   0.196498 C.3        1 UNL1     0.1342
     3 C         -1.902617   -0.964992   -0.335191 C.3        1 UNL1     0.1174
     4 C         -2.787095   -2.024984   0.326045 C.3        1 UNL1     0.1456
     5 C         -2.633842   -2.049664   1.857798 C.3        1 UNL1     0.2326
     6 O         -1.268347   -2.266174   2.206247 O.3        1 UNL1     -0.3076
     7 O         -3.209303   -0.903018   2.51 O.3        1 UNL1     -0.4605
     8 C         -3.717265   -1.118562   3.778481 C.ar        1 UNL1     0.1310
     9 C         -4.531905   -2.192354   4.153492 C.ar        1 UNL1     0.0226
     10 C         -4.983143   -2.332743   5.471285 C.ar        1 UNL1     0.1343
     11 C         -4.610745   -1.414759   6.452338 C.ar        1 UNL1     0.1007
     12 C         -3.831325   -0.315907   6.081105 C.ar        1 UNL1     0.1389
     13 C         -3.379916   -0.173539   4.755439 C.ar        1 UNL1     0.0229
     14 C         -4.989547   -1.560468   7.876919 C.2        1 UNL1     0.1740
     15 C         -4.320603   -0.611055   8.827012 C.3        1 UNL1     0.0520
     16 C         -4.253711   0.760743   8.170008 C.3        1 UNL1     0.1322
     17 O         -3.496522   0.704297   6.940964 O.3        1 UNL1     -0.4828
     18 C         -5.613925   1.4515   8.045936 C.ar        1 UNL1     -0.0067
     19 C         -5.995153   2.013374   6.810146 C.ar        1 UNL1     -0.0516
     20 C         -7.211391   2.693406   6.67493 C.ar        1 UNL1     -0.0198
     21 C         -8.049946   2.824468   7.767393 C.ar        1 UNL1     0.1169
     22 C         -7.717509   2.253143   8.988832 C.ar        1 UNL1     -0.0198
     23 C         -6.5098   1.557149   9.119547 C.ar        1 UNL1     -0.0516
     24 O         -9.208667   3.526032   7.607477 O.3        1 UNL1     -0.5068
     25 O         -5.7368   -2.44288   8.290981 O.2        1 UNL1     -0.2917
     26 O         -5.775834   -3.401875   5.771589 O.3        1 UNL1     -0.5058
     27 O         -0.223787   -0.189523   2.542427 O.3        1 UNL1     -0.3648
     28 O         0.269547   -1.953734   -0.566651 O.3        1 UNL1     -0.3841
     29 O         -2.461359   0.348063   -0.258864 O.3        1 UNL1     -0.3863
     30 O         -2.438729   -3.325583   -0.196231 O.3        1 UNL1     -0.3829
     31 H         0.63255   -1.839944   1.820773 H        1 UNL1     0.0937
     32 H         0.0   0.0   0.0 H        1 UNL1     0.0671
     33 H         -1.866483   -1.204847   -1.407051 H        1 UNL1     0.0649
     34 H         -3.837675   -1.847836   0.070503 H        1 UNL1     0.0683
     35 H         -3.187292   -2.946014   2.164603 H        1 UNL1     0.1085
     36 H         -4.810278   -2.96966   3.450339 H        1 UNL1     0.0691
     37 H         -2.77521   0.691504   4.491765 H        1 UNL1     0.0691
     38 H         -3.317551   -0.999927   9.03242 H        1 UNL1     0.0385
     39 H         -4.879659   -0.592287   9.768757 H        1 UNL1     0.0385
     40 H         -3.658754   1.406887   8.829587 H        1 UNL1     0.0789
     41 H         -5.350327   1.932052   5.939952 H        1 UNL1     0.0623
     42 H         -7.48866   3.13257   5.719802 H        1 UNL1     0.0654
     43 H         -8.373755   2.336825   9.846882 H        1 UNL1     0.0654
     44 H         -6.286946   1.114445   10.085567 H        1 UNL1     0.0623
     45 H         -8.984061   4.43343   7.344995 H        1 UNL1     0.2921
     46 H         -5.369849   -3.914387   6.488471 H        1 UNL1     0.2922
     47 H         0.518418   0.364821   2.26369 H        1 UNL1     0.2126
     48 H         1.202574   -1.88732   -0.285969 H        1 UNL1     0.2101
     49 H         -2.023725   0.930706   -0.8998 H        1 UNL1     0.2100
     50 H         -2.672972   -3.341189   -1.147336 H        1 UNL1     0.2102
@<TRIPOS>BOND
     1     1     2    1
     2     1     6    1
     3     2     3    1
     4     3     4    1
     5     3    29    1
     6     3    33    1
     7     4     5    1
     8     5     6    1
     9     5     7    1
    10     5    35    1
    11     7     8    1
    12     8     9   ar
    13     8    13   ar
    14     9    10   ar
    15     9    36    1
    16    10    11   ar
    17    10    26    1
    18    11    12   ar
    19    11    14    1
    20    12    13   ar
    21    12    17    1
    22    13    37    1
    23    14    15    1
    24    14    25    2
    25    15    16    1
    26    15    38    1
    27    15    39    1
    28    16    17    1
    29    16    18    1
    30    16    40    1
    31    18    19   ar
    32    18    23   ar
    33    19    20   ar
    34    19    41    1
    35    20    21   ar
    36    20    42    1
    37    21    22   ar
    38    21    24    1
    39    22    23   ar
    40    22    43    1
    41    23    44    1
    42    24    45    1
    43    26    46    1
    44    27    47    1
    45    28    48    1
    46    29    49    1
    47    30    50    1
    48     1    31    1
    49     1    27    1
    50     2    32    1
    51     2    28    1
    52     4    34    1
    53     4    30    1
