@<TRIPOS>MOLECULE
*****
 50 53 0 0 0
SMALL
GASTEIGER

@<TRIPOS>ATOM
     1 C         -0.323092   -1.362479   1.676325 C.3        1 UNL1     0.1889
     2 C         -0.46442   -0.977662   0.179034 C.3        1 UNL1     0.1342
     3 C         -1.909455   -0.94895   -0.342039 C.3        1 UNL1     0.1174
     4 C         -2.794266   -2.018696   0.302842 C.3        1 UNL1     0.1456
     5 C         -2.630388   -2.076608   1.832598 C.3        1 UNL1     0.2326
     6 O         -1.26352   -2.306709   2.166653 O.3        1 UNL1     -0.3076
     7 O         -3.195842   -0.941457   2.51305 O.3        1 UNL1     -0.4605
     8 C         -3.706137   -1.18395   3.775716 C.ar        1 UNL1     0.1310
     9 C         -4.530432   -2.259437   4.123803 C.ar        1 UNL1     0.0226
     10 C         -4.983353   -2.428533   5.437642 C.ar        1 UNL1     0.1343
     11 C         -4.603133   -1.538587   6.44127 C.ar        1 UNL1     0.1007
     12 C         -3.813834   -0.43783   6.097579 C.ar        1 UNL1     0.1389
     13 C         -3.360722   -0.26656   4.775918 C.ar        1 UNL1     0.0229
     14 C         -4.983705   -1.716303   7.861741 C.2        1 UNL1     0.1740
     15 C         -4.306659   -0.796811   8.835236 C.3        1 UNL1     0.0520
     16 C         -4.227333   0.590253   8.212565 C.3        1 UNL1     0.1322
     17 O         -3.470256   0.55765   6.982588 O.3        1 UNL1     -0.4828
     18 C         -5.581301   1.295973   8.105549 C.ar        1 UNL1     -0.0067
     19 C         -5.949514   1.907115   6.889351 C.ar        1 UNL1     -0.0516
     20 C         -7.159518   2.601396   6.771763 C.ar        1 UNL1     -0.0198
     21 C         -8.004697   2.697762   7.862732 C.ar        1 UNL1     0.1169
     22 C         -7.685244   2.078105   9.063903 C.ar        1 UNL1     -0.0198
     23 C         -6.48386   1.368111   9.176333 C.ar        1 UNL1     -0.0516
     24 O         -9.156849   3.414035   7.721664 O.3        1 UNL1     -0.5068
     25 O         -5.738925   -2.602048   8.253635 O.2        1 UNL1     -0.2917
     26 O         -5.785633   -3.497699   5.711165 O.3        1 UNL1     -0.5058
     27 O         -0.206838   -0.242462   2.539363 O.3        1 UNL1     -0.3648
     28 O         0.256341   -1.942468   -0.609864 O.3        1 UNL1     -0.3841
     29 O         -2.461444   0.364727   -0.233907 O.3        1 UNL1     -0.3863
     30 O         -2.455714   -3.309485   -0.249367 O.3        1 UNL1     -0.3829
     31 H         0.636617   -1.881077   1.776793 H        1 UNL1     0.0937
     32 H         0.0   0.0   0.0 H        1 UNL1     0.0671
     33 H         -1.881974   -1.166145   -1.418975 H        1 UNL1     0.0649
     34 H         -3.845764   -1.83136   0.058594 H        1 UNL1     0.0683
     35 H         -3.185897   -2.976734   2.124253 H        1 UNL1     0.1085
     36 H         -4.815474   -3.016503   3.4015 H        1 UNL1     0.0691
     37 H         -2.748248   0.599352   4.533917 H        1 UNL1     0.0691
     38 H         -3.30718   -1.199592   9.031029 H        1 UNL1     0.0385
     39 H         -4.865848   -0.796492   9.777089 H        1 UNL1     0.0385
     40 H         -3.626873   1.214467   8.888083 H        1 UNL1     0.0789
     41 H         -5.299234   1.853596   6.021064 H        1 UNL1     0.0623
     42 H         -7.426692   3.078498   5.83208 H        1 UNL1     0.0654
     43 H         -8.346841   2.134531   9.920067 H        1 UNL1     0.0654
     44 H         -6.271202   0.887492   10.1264 H        1 UNL1     0.0623
     45 H         -8.922898   4.335963   7.526642 H        1 UNL1     0.2921
     46 H         -5.385796   -4.030009   6.41699 H        1 UNL1     0.2922
     47 H         0.522968   0.325201   2.254756 H        1 UNL1     0.2126
     48 H         1.197938   -1.856147   -0.365578 H        1 UNL1     0.2101
     49 H         -2.031535   0.956833   -0.871389 H        1 UNL1     0.2100
     50 H         -2.701909   -3.305749   -1.197569 H        1 UNL1     0.2102
@<TRIPOS>BOND
     1     1     2    1
     2     1     6    1
     3     2     3    1
     4     3     4    1
     5     3    29    1
     6     3    33    1
     7     4     5    1
     8     5     6    1
     9     5     7    1
    10     5    35    1
    11     7     8    1
    12     8     9   ar
    13     8    13   ar
    14     9    10   ar
    15     9    36    1
    16    10    11   ar
    17    10    26    1
    18    11    12   ar
    19    11    14    1
    20    12    13   ar
    21    12    17    1
    22    13    37    1
    23    14    15    1
    24    14    25    2
    25    15    16    1
    26    15    38    1
    27    15    39    1
    28    16    17    1
    29    16    18    1
    30    16    40    1
    31    18    19   ar
    32    18    23   ar
    33    19    20   ar
    34    19    41    1
    35    20    21   ar
    36    20    42    1
    37    21    22   ar
    38    21    24    1
    39    22    23   ar
    40    22    43    1
    41    23    44    1
    42    24    45    1
    43    26    46    1
    44    27    47    1
    45    28    48    1
    46    29    49    1
    47    30    50    1
    48     1    31    1
    49     1    27    1
    50     2    32    1
    51     2    28    1
    52     4    34    1
    53     4    30    1
