@<TRIPOS>MOLECULE
*****
 50 53 0 0 0
SMALL
GASTEIGER

@<TRIPOS>ATOM
     1 C         -0.33093   -1.327484   1.702668 C.3        1 UNL1     0.1889
     2 C         -0.461973   -0.975486   0.196392 C.3        1 UNL1     0.1342
     3 C         -1.902961   -0.963887   -0.336416 C.3        1 UNL1     0.1174
     4 C         -2.788615   -2.023154   0.324407 C.3        1 UNL1     0.1456
     5 C         -2.636564   -2.047535   1.856285 C.3        1 UNL1     0.2326
     6 O         -1.271475   -2.264811   2.205846 O.3        1 UNL1     -0.3076
     7 O         -3.211811   -0.900361   2.507746 O.3        1 UNL1     -0.4605
     8 C         -3.72089   -1.11526   3.775888 C.ar        1 UNL1     0.1310
     9 C         -4.536493   -2.188444   4.150544 C.ar        1 UNL1     0.0226
     10 C         -4.988839   -2.328211   5.468023 C.ar        1 UNL1     0.1343
     11 C         -4.616626   -1.410208   6.449128 C.ar        1 UNL1     0.1007
     12 C         -3.83623   -0.311941   6.078217 C.ar        1 UNL1     0.1389
     13 C         -3.383706   -0.170196   4.752864 C.ar        1 UNL1     0.0229
     14 C         -4.996623   -1.555312   7.873453 C.2        1 UNL1     0.1740
     15 C         -4.327819   -0.606074   8.82382 C.3        1 UNL1     0.0520
     16 C         -4.259559   0.765512   8.166515 C.3        1 UNL1     0.1322
     17 O         -3.501454   0.708276   6.938072 O.3        1 UNL1     -0.4828
     18 C         -5.619244   1.45709   8.041211 C.ar        1 UNL1     -0.0067
     19 C         -5.999162   2.018884   6.804982 C.ar        1 UNL1     -0.0516
     20 C         -7.214869   2.699643   6.668649 C.ar        1 UNL1     -0.0198
     21 C         -8.054187   2.831511   7.760429 C.ar        1 UNL1     0.1169
     22 C         -7.723055   2.260293   8.982272 C.ar        1 UNL1     -0.0198
     23 C         -6.515884   1.563576   9.114101 C.ar        1 UNL1     -0.0516
     24 O         -9.212345   3.53376   7.599435 O.3        1 UNL1     -0.5068
     25 O         -5.744749   -2.43715   8.287163 O.2        1 UNL1     -0.2917
     26 O         -5.782432   -3.396769   5.767988 O.3        1 UNL1     -0.5058
     27 O         -0.225875   -0.188727   2.542301 O.3        1 UNL1     -0.3648
     28 O         0.268761   -1.954049   -0.565939 O.3        1 UNL1     -0.3841
     29 O         -2.460939   0.349538   -0.26086 O.3        1 UNL1     -0.3863
     30 O         -2.440659   -3.324105   -0.197265 O.3        1 UNL1     -0.3829
     31 H         0.629987   -1.839871   1.821735 H        1 UNL1     0.0937
     32 H         0.0   0.0   0.0 H        1 UNL1     0.0671
     33 H         -1.866147   -1.20404   -1.408186 H        1 UNL1     0.0649
     34 H         -3.838885   -1.845413   0.068005 H        1 UNL1     0.0683
     35 H         -3.190813   -2.943459   2.162891 H        1 UNL1     0.1085
     36 H         -4.814809   -2.965757   3.447376 H        1 UNL1     0.0691
     37 H         -2.778253   0.6944   4.489437 H        1 UNL1     0.0691
     38 H         -3.325171   -0.995522   9.030105 H        1 UNL1     0.0385
     39 H         -4.887593   -0.586714   9.765126 H        1 UNL1     0.0385
     40 H         -3.664709   1.411454   8.826388 H        1 UNL1     0.0789
     41 H         -5.353714   1.936933   5.935309 H        1 UNL1     0.0623
     42 H         -7.491123   3.138734   5.713194 H        1 UNL1     0.0654
     43 H         -8.379912   2.344607   9.839791 H        1 UNL1     0.0654
     44 H         -6.294055   1.120981   10.080407 H        1 UNL1     0.0623
     45 H         -8.986953   4.441069   7.337319 H        1 UNL1     0.2921
     46 H         -5.377453   -3.909205   6.485493 H        1 UNL1     0.2922
     47 H         0.516894   0.365079   2.263997 H        1 UNL1     0.2126
     48 H         1.201612   -1.888147   -0.284552 H        1 UNL1     0.2101
     49 H         -2.022444   0.931741   -0.901606 H        1 UNL1     0.2100
     50 H         -2.674176   -3.339809   -1.148546 H        1 UNL1     0.2102
@<TRIPOS>BOND
     1     1     2    1
     2     1     6    1
     3     2     3    1
     4     3     4    1
     5     3    29    1
     6     3    33    1
     7     4     5    1
     8     5     6    1
     9     5     7    1
    10     5    35    1
    11     7     8    1
    12     8     9   ar
    13     8    13   ar
    14     9    10   ar
    15     9    36    1
    16    10    11   ar
    17    10    26    1
    18    11    12   ar
    19    11    14    1
    20    12    13   ar
    21    12    17    1
    22    13    37    1
    23    14    15    1
    24    14    25    2
    25    15    16    1
    26    15    38    1
    27    15    39    1
    28    16    17    1
    29    16    18    1
    30    16    40    1
    31    18    19   ar
    32    18    23   ar
    33    19    20   ar
    34    19    41    1
    35    20    21   ar
    36    20    42    1
    37    21    22   ar
    38    21    24    1
    39    22    23   ar
    40    22    43    1
    41    23    44    1
    42    24    45    1
    43    26    46    1
    44    27    47    1
    45    28    48    1
    46    29    49    1
    47    30    50    1
    48     1    31    1
    49     1    27    1
    50     2    32    1
    51     2    28    1
    52     4    34    1
    53     4    30    1
