@<TRIPOS>MOLECULE
*****
 50 53 0 0 0
SMALL
GASTEIGER

@<TRIPOS>ATOM
     1 C         -0.698634   0.462842   -2.01705 C.3        1 UNL1     0.1889
     2 C         0.383069   0.489706   -0.903885 C.3        1 UNL1     0.1342
     3 C         0.89082   1.892544   -0.53687 C.3        1 UNL1     0.1174
     4 C         0.948343   2.836599   -1.740435 C.3        1 UNL1     0.1456
     5 C         -0.332786   2.785073   -2.592736 C.3        1 UNL1     0.2326
     6 O         -0.57197   1.449397   -3.03049 O.3        1 UNL1     -0.3076
     7 O         -1.473368   3.382659   -1.949865 O.3        1 UNL1     -0.4605
     8 C         -2.386529   2.503655   -1.395772 C.ar        1 UNL1     0.1310
     9 C         -2.280966   1.108699   -1.411701 C.ar        1 UNL1     0.0226
     10 C         -3.252228   0.302434   -0.806315 C.ar        1 UNL1     0.1343
     11 C         -4.341428   0.872874   -0.148986 C.ar        1 UNL1     0.1007
     12 C         -4.479151   2.263432   -0.161848 C.ar        1 UNL1     0.1389
     13 C         -3.503798   3.073811   -0.772915 C.ar        1 UNL1     0.0229
     14 C         -5.352387   0.071702   0.579189 C.2        1 UNL1     0.1740
     15 C         -6.324151   0.854718   1.412321 C.3        1 UNL1     0.0520
     16 C         -6.722481   2.105044   0.640327 C.3        1 UNL1     0.1322
     17 O         -5.566389   2.924876   0.360333 O.3        1 UNL1     -0.4828
     18 C         -7.609165   1.822547   -0.574873 C.ar        1 UNL1     -0.0067
     19 C         -8.882208   2.423117   -0.657879 C.ar        1 UNL1     -0.0516
     20 C         -9.737161   2.148879   -1.732035 C.ar        1 UNL1     -0.0198
     21 C         -9.334593   1.272131   -2.723538 C.ar        1 UNL1     0.1169
     22 C         -8.073714   0.691029   -2.686889 C.ar        1 UNL1     -0.0198
     23 C         -7.211341   0.979406   -1.622367 C.ar        1 UNL1     -0.0516
     24 O         -10.208921   1.000025   -3.734434 O.3        1 UNL1     -0.5068
     25 O         -5.367115   -1.156408   0.582874 O.2        1 UNL1     -0.2917
     26 O         -3.090952   -1.051407   -0.858162 O.3        1 UNL1     -0.5058
     27 O         -2.024088   0.394056   -1.515824 O.3        1 UNL1     -0.3648
     28 O         1.518602   -0.273   -1.352828 O.3        1 UNL1     -0.3841
     29 O         0.14361   2.432662   0.554955 O.3        1 UNL1     -0.3863
     30 O         2.073366   2.476766   -2.571418 O.3        1 UNL1     -0.3829
     31 H         -0.566146   -0.479754   -2.559305 H        1 UNL1     0.0937
     32 H         0.0   0.0   0.0 H        1 UNL1     0.0671
     33 H         1.919489   1.789937   -0.164001 H        1 UNL1     0.0649
     34 H         1.116115   3.864884   -1.401489 H        1 UNL1     0.0683
     35 H         -0.081063   3.372723   -3.484466 H        1 UNL1     0.1085
     36 H         -1.429581   0.606339   -1.85768 H        1 UNL1     0.0691
     37 H         -3.634835   4.153772   -0.770129 H        1 UNL1     0.0691
     38 H         -5.822522   1.113169   2.35099 H        1 UNL1     0.0385
     39 H         -7.186263   0.221575   1.648271 H        1 UNL1     0.0385
     40 H         -7.337639   2.718327   1.312624 H        1 UNL1     0.0789
     41 H         -9.225173   3.107775   0.112362 H        1 UNL1     0.0623
     42 H         -10.721083   2.609034   -1.778588 H        1 UNL1     0.0654
     43 H         -7.742507   0.01469   -3.465849 H        1 UNL1     0.0654
     44 H         -6.229533   0.51592   -1.631282 H        1 UNL1     0.0623
     45 H         -10.572664   1.839476   -4.059596 H        1 UNL1     0.2921
     46 H         -3.772259   -1.436647   -1.431593 H        1 UNL1     0.2922
     47 H         -2.573165   1.076512   -1.926466 H        1 UNL1     0.2126
     48 H         2.300029   0.09351   -0.895909 H        1 UNL1     0.2101
     49 H         0.249592   3.396928   0.582405 H        1 UNL1     0.2100
     50 H         1.801623   1.725054   -3.137807 H        1 UNL1     0.2102
@<TRIPOS>BOND
     1     1     2    1
     2     1     6    1
     3     2     3    1
     4     3     4    1
     5     3    29    1
     6     3    33    1
     7     4     5    1
     8     5     6    1
     9     5     7    1
    10     5    35    1
    11     7     8    1
    12     8     9   ar
    13     8    13   ar
    14     9    10   ar
    15     9    36    1
    16    10    11   ar
    17    10    26    1
    18    11    12   ar
    19    11    14    1
    20    12    13   ar
    21    12    17    1
    22    13    37    1
    23    14    15    1
    24    14    25    2
    25    15    16    1
    26    15    38    1
    27    15    39    1
    28    16    17    1
    29    16    18    1
    30    16    40    1
    31    18    19   ar
    32    18    23   ar
    33    19    20   ar
    34    19    41    1
    35    20    21   ar
    36    20    42    1
    37    21    22   ar
    38    21    24    1
    39    22    23   ar
    40    22    43    1
    41    23    44    1
    42    24    45    1
    43    26    46    1
    44    27    47    1
    45    28    48    1
    46    29    49    1
    47    30    50    1
    48     1    31    1
    49     1    27    1
    50     2    32    1
    51     2    28    1
    52     4    34    1
    53     4    30    1
