@<TRIPOS>MOLECULE
*****
 50 53 0 0 0
SMALL
GASTEIGER

@<TRIPOS>ATOM
     1 C         -0.370465   -1.397649   1.637112 C.3        1 UNL1     0.1889
     2 C         -0.487942   -0.971213   0.149063 C.3        1 UNL1     0.1342
     3 C         -1.926606   -0.896412   -0.384899 C.3        1 UNL1     0.1174
     4 C         -2.841602   -1.962181   0.223408 C.3        1 UNL1     0.1456
     5 C         -2.694608   -2.063252   1.752637 C.3        1 UNL1     0.2326
     6 O         -1.336686   -2.332729   2.093662 O.3        1 UNL1     -0.3076
     7 O         -3.241443   -0.933556   2.456968 O.3        1 UNL1     -0.4605
     8 C         -3.770255   -1.197053   3.707749 C.ar        1 UNL1     0.1310
     9 C         -4.61382   -2.268105   4.021668 C.ar        1 UNL1     0.0226
     10 C         -5.084844   -2.460212   5.325944 C.ar        1 UNL1     0.1343
     11 C         -4.704146   -1.598687   6.353895 C.ar        1 UNL1     0.1007
     12 C         -3.895265   -0.501968   6.044536 C.ar        1 UNL1     0.1389
     13 C         -3.423927   -0.307515   4.732493 C.ar        1 UNL1     0.0229
     14 C         -5.104236   -1.802858   7.765418 C.2        1 UNL1     0.1740
     15 C         -4.425983   -0.915401   8.767388 C.3        1 UNL1     0.0520
     16 C         -4.319546   0.484053   8.177339 C.3        1 UNL1     0.1322
     17 O         -3.548284   0.468255   6.955875 O.3        1 UNL1     -0.4828
     18 C         -5.662002   1.211468   8.07055 C.ar        1 UNL1     -0.0067
     19 C         -5.757599   2.376491   7.28201 C.ar        1 UNL1     -0.0516
     20 C         -6.957978   3.09234   7.200694 C.ar        1 UNL1     -0.0198
     21 C         -8.065341   2.658591   7.907401 C.ar        1 UNL1     0.1169
     22 C         -8.011724   1.496386   8.665848 C.ar        1 UNL1     -0.0198
     23 C         -6.816672   0.77013   8.732633 C.ar        1 UNL1     -0.0516
     24 O         -9.206262   3.40244   7.834 O.3        1 UNL1     -0.5068
     25 O         -5.876578   -2.68622   8.128245 O.2        1 UNL1     -0.2917
     26 O         -5.905412   -3.523583   5.565723 O.3        1 UNL1     -0.5058
     27 O         -0.23799   -0.303197   2.530092 O.3        1 UNL1     -0.3648
     28 O         0.21906   -1.931374   -0.657749 O.3        1 UNL1     -0.3841
     29 O         -2.450178   0.426174   -0.247892 O.3        1 UNL1     -0.3863
     30 O         -2.526381   -3.245606   -0.358953 O.3        1 UNL1     -0.3829
     31 H         0.576348   -1.940223   1.733229 H        1 UNL1     0.0937
     32 H         0.0   0.0   0.0 H        1 UNL1     0.0671
     33 H         -1.893045   -1.0863   -1.466812 H        1 UNL1     0.0649
     34 H         -3.886117   -1.744888   -0.025937 H        1 UNL1     0.0683
     35 H         -3.273023   -2.957823   2.015424 H        1 UNL1     0.1085
     36 H         -4.900855   -3.004511   3.279079 H        1 UNL1     0.0691
     37 H         -2.796388   0.554703   4.51739 H        1 UNL1     0.0691
     38 H         -3.434732   -1.336872   8.965658 H        1 UNL1     0.0385
     39 H         -4.996388   -0.928239   9.702403 H        1 UNL1     0.0385
     40 H         -3.718467   1.084157   8.87383 H        1 UNL1     0.0789
     41 H         -4.900088   2.742696   6.725036 H        1 UNL1     0.0623
     42 H         -7.015715   3.99583   6.598711 H        1 UNL1     0.0654
     43 H         -8.877202   1.139442   9.211237 H        1 UNL1     0.0654
     44 H         -6.813619   -0.138977   9.326231 H        1 UNL1     0.0623
     45 H         -9.036512   4.2657   8.244713 H        1 UNL1     0.2921
     46 H         -5.532802   -4.065327   6.279227 H        1 UNL1     0.2922
     47 H         0.507171   0.254987   2.267363 H        1 UNL1     0.2126
     48 H         1.171298   -1.779581   -0.503038 H        1 UNL1     0.2101
     49 H         -2.134652   0.983207   -0.977242 H        1 UNL1     0.2100
     50 H         -2.78375   -3.219351   -1.303826 H        1 UNL1     0.2102
@<TRIPOS>BOND
     1     1     2    1
     2     1     6    1
     3     2     3    1
     4     3     4    1
     5     3    29    1
     6     3    33    1
     7     4     5    1
     8     5     6    1
     9     5     7    1
    10     5    35    1
    11     7     8    1
    12     8     9   ar
    13     8    13   ar
    14     9    10   ar
    15     9    36    1
    16    10    11   ar
    17    10    26    1
    18    11    12   ar
    19    11    14    1
    20    12    13   ar
    21    12    17    1
    22    13    37    1
    23    14    15    1
    24    14    25    2
    25    15    16    1
    26    15    38    1
    27    15    39    1
    28    16    17    1
    29    16    18    1
    30    16    40    1
    31    18    19   ar
    32    18    23   ar
    33    19    20   ar
    34    19    41    1
    35    20    21   ar
    36    20    42    1
    37    21    22   ar
    38    21    24    1
    39    22    23   ar
    40    22    43    1
    41    23    44    1
    42    24    45    1
    43    26    46    1
    44    27    47    1
    45    28    48    1
    46    29    49    1
    47    30    50    1
    48     1    31    1
    49     1    27    1
    50     2    32    1
    51     2    28    1
    52     4    34    1
    53     4    30    1
