@<TRIPOS>MOLECULE
*****
 50 53 0 0 0
SMALL
GASTEIGER

@<TRIPOS>ATOM
     1 C         -0.336449   -1.335383   1.695393 C.3        1 UNL1     0.1889
     2 C         -0.46509   -0.975101   0.190871 C.3        1 UNL1     0.1342
     3 C         -1.905562   -0.956352   -0.343127 C.3        1 UNL1     0.1174
     4 C         -2.794997   -2.016386   0.311359 C.3        1 UNL1     0.1456
     5 C         -2.644381   -2.049256   1.84322 C.3        1 UNL1     0.2326
     6 O         -1.280265   -2.272487   2.192828 O.3        1 UNL1     -0.3076
     7 O         -3.216741   -0.903778   2.500186 O.3        1 UNL1     -0.4605
     8 C         -3.728018   -1.123884   3.766549 C.ar        1 UNL1     0.1310
     9 C         -4.54749   -2.19646   4.134447 C.ar        1 UNL1     0.0226
     10 C         -5.001853   -2.341884   5.450619 C.ar        1 UNL1     0.1343
     11 C         -4.627884   -1.430381   6.437102 C.ar        1 UNL1     0.1007
     12 C         -3.843544   -0.332631   6.073044 C.ar        1 UNL1     0.1389
     13 C         -3.388986   -0.185188   4.749008 C.ar        1 UNL1     0.0229
     14 C         -5.010043   -1.581949   7.860175 C.2        1 UNL1     0.1740
     15 C         -4.339349   -0.639995   8.816438 C.3        1 UNL1     0.0520
     16 C         -4.265925   0.734891   8.166627 C.3        1 UNL1     0.1322
     17 O         -3.50654   0.681857   6.938786 O.3        1 UNL1     -0.4828
     18 C         -5.623245   1.43148   8.043457 C.ar        1 UNL1     -0.0067
     19 C         -5.998705   2.003593   6.810603 C.ar        1 UNL1     -0.0516
     20 C         -7.212056   2.689011   6.676643 C.ar        1 UNL1     -0.0198
     21 C         -8.053419   2.815291   7.767509 C.ar        1 UNL1     0.1169
     22 C         -7.72674   2.234008   8.985799 C.ar        1 UNL1     -0.0198
     23 C         -6.521963   1.532691   9.115118 C.ar        1 UNL1     -0.0516
     24 O         -9.2091   3.522207   7.609177 O.3        1 UNL1     -0.5068
     25 O         -5.761474   -2.463608   8.268238 O.2        1 UNL1     -0.2917
     26 O         -5.799211   -3.4095   5.743878 O.3        1 UNL1     -0.5058
     27 O         -0.228702   -0.201366   2.541078 O.3        1 UNL1     -0.3648
     28 O         0.263364   -1.951859   -0.575944 O.3        1 UNL1     -0.3841
     29 O         -2.45964   0.358339   -0.261171 O.3        1 UNL1     -0.3863
     30 O         -2.450506   -3.315632   -0.216824 O.3        1 UNL1     -0.3829
     31 H         0.622811   -1.85129   1.812611 H        1 UNL1     0.0937
     32 H         0.0   0.0   0.0 H        1 UNL1     0.0671
     33 H         -1.868522   -1.190995   -1.416109 H        1 UNL1     0.0649
     34 H         -3.844497   -1.834129   0.054977 H        1 UNL1     0.0683
     35 H         -3.201604   -2.945095   2.144641 H        1 UNL1     0.1085
     36 H         -4.827445   -2.969075   3.426766 H        1 UNL1     0.0691
     37 H         -2.780463   0.678876   4.490965 H        1 UNL1     0.0691
     38 H         -3.338196   -1.033755   9.021798 H        1 UNL1     0.0385
     39 H         -4.900181   -0.623922   9.757176 H        1 UNL1     0.0385
     40 H         -3.669805   1.375358   8.830677 H        1 UNL1     0.0789
     41 H         -5.351559   1.926163   5.941778 H        1 UNL1     0.0623
     42 H         -7.48485   3.136025   5.723872 H        1 UNL1     0.0654
     43 H         -8.385261   2.313926   9.842463 H        1 UNL1     0.0654
     44 H         -6.303629   1.082258   10.078593 H        1 UNL1     0.0623
     45 H         -8.98016   4.433137   7.363188 H        1 UNL1     0.2921
     46 H         -5.397933   -3.925736   6.460738 H        1 UNL1     0.2922
     47 H         0.513341   0.353867   2.263684 H        1 UNL1     0.2126
     48 H         1.19906   -1.878033   -0.306211 H        1 UNL1     0.2101
     49 H         -2.020904   0.941819   -0.900589 H        1 UNL1     0.2100
     50 H         -2.688448   -3.327563   -1.167063 H        1 UNL1     0.2102
@<TRIPOS>BOND
     1     1     2    1
     2     1     6    1
     3     2     3    1
     4     3     4    1
     5     3    29    1
     6     3    33    1
     7     4     5    1
     8     5     6    1
     9     5     7    1
    10     5    35    1
    11     7     8    1
    12     8     9   ar
    13     8    13   ar
    14     9    10   ar
    15     9    36    1
    16    10    11   ar
    17    10    26    1
    18    11    12   ar
    19    11    14    1
    20    12    13   ar
    21    12    17    1
    22    13    37    1
    23    14    15    1
    24    14    25    2
    25    15    16    1
    26    15    38    1
    27    15    39    1
    28    16    17    1
    29    16    18    1
    30    16    40    1
    31    18    19   ar
    32    18    23   ar
    33    19    20   ar
    34    19    41    1
    35    20    21   ar
    36    20    42    1
    37    21    22   ar
    38    21    24    1
    39    22    23   ar
    40    22    43    1
    41    23    44    1
    42    24    45    1
    43    26    46    1
    44    27    47    1
    45    28    48    1
    46    29    49    1
    47    30    50    1
    48     1    31    1
    49     1    27    1
    50     2    32    1
    51     2    28    1
    52     4    34    1
    53     4    30    1
