@<TRIPOS>MOLECULE
*****
 50 53 0 0 0
SMALL
GASTEIGER

@<TRIPOS>ATOM
     1 C         1.209516   0.42554   1.768273 C.3        1 UNL1     0.1889
     2 C         -0.149975   0.373404   1.020607 C.3        1 UNL1     0.1342
     3 C         -0.899683   1.713032   0.95896 C.3        1 UNL1     0.1174
     4 C         -0.703506   2.561419   2.217877 C.3        1 UNL1     0.1456
     5 C         0.770276   2.63339   2.657366 C.3        1 UNL1     0.2326
     6 O         1.278792   1.318483   2.870203 O.3        1 UNL1     -0.3076
     7 O         1.592569   3.422743   1.778686 O.3        1 UNL1     -0.4605
     8 C         1.12544   4.692142   1.488958 C.ar        1 UNL1     0.1310
     9 C         1.81406   5.884811   1.735219 C.ar        1 UNL1     0.0226
     10 C         1.262128   7.123931   1.389019 C.ar        1 UNL1     0.1343
     11 C         0.017201   7.199023   0.765833 C.ar        1 UNL1     0.1007
     12 C         -0.697909   6.017629   0.552034 C.ar        1 UNL1     0.1389
     13 C         -0.143876   4.772013   0.902632 C.ar        1 UNL1     0.0229
     14 C         -0.575985   8.474951   0.302918 C.2        1 UNL1     0.1740
     15 C         -1.8095   8.348672   -0.542092 C.3        1 UNL1     0.0520
     16 C         -2.68126   7.24449   0.039949 C.3        1 UNL1     0.1322
     17 O         -1.976238   5.983543   0.045103 O.3        1 UNL1     -0.4828
     18 C         -3.332224   7.612766   1.375368 C.ar        1 UNL1     -0.0067
     19 C         -3.153124   8.909768   1.898746 C.ar        1 UNL1     -0.0516
     20 C         -3.695026   9.264697   3.139846 C.ar        1 UNL1     -0.0198
     21 C         -4.41017   8.331564   3.868997 C.ar        1 UNL1     0.1169
     22 C         -4.631918   7.056594   3.364895 C.ar        1 UNL1     -0.0198
     23 C         -4.105792   6.707088   2.115458 C.ar        1 UNL1     -0.0516
     24 O         -4.890686   8.701824   5.09064 O.3        1 UNL1     -0.5068
     25 O         -0.067609   9.572863   0.514175 O.2        1 UNL1     -0.2917
     26 O         1.98462   8.24984   1.657196 O.3        1 UNL1     -0.5058
     27 O         2.324822   0.57284   0.903876 O.3        1 UNL1     -0.3648
     28 O         -1.006402   -0.566085   1.696328 O.3        1 UNL1     -0.3841
     29 O         -0.577276   2.419785   -0.240493 O.3        1 UNL1     -0.3863
     30 O         -1.482103   1.997209   3.295441 O.3        1 UNL1     -0.3829
     31 H         1.352142   -0.558942   2.227111 H        1 UNL1     0.0937
     32 H         0.0   0.0   -0.0 H        1 UNL1     0.0671
     33 H         -1.974084   1.493094   0.888183 H        1 UNL1     0.0649
     34 H         -1.080053   3.576101   2.047486 H        1 UNL1     0.0683
     35 H         0.730085   3.122538   3.63869 H        1 UNL1     0.1085
     36 H         2.809413   5.890096   2.165759 H        1 UNL1     0.0691
     37 H         -0.721374   3.867003   0.72672 H        1 UNL1     0.0691
     38 H         -1.489615   8.103843   -1.560551 H        1 UNL1     0.0385
     39 H         -2.326689   9.313859   -0.568729 H        1 UNL1     0.0385
     40 H         -3.515824   7.089567   -0.657203 H        1 UNL1     0.0789
     41 H         -2.588018   9.657539   1.34998 H        1 UNL1     0.0623
     42 H         -3.539895   10.264367   3.5381 H        1 UNL1     0.0654
     43 H         -5.203238   6.322763   3.920768 H        1 UNL1     0.0654
     44 H         -4.307468   5.705671   1.74758 H        1 UNL1     0.0623
     45 H         -4.137554   8.921303   5.662775 H        1 UNL1     0.2921
     46 H         2.023419   8.806112   0.863176 H        1 UNL1     0.2922
     47 H         3.141191   0.340756   1.368136 H        1 UNL1     0.2126
     48 H         -0.637419   -1.453986   1.525399 H        1 UNL1     0.2101
     49 H         -0.243132   1.800474   -0.908771 H        1 UNL1     0.2100
     50 H         -2.025301   1.270253   2.926411 H        1 UNL1     0.2102
@<TRIPOS>BOND
     1     1     2    1
     2     1     6    1
     3     2     3    1
     4     3     4    1
     5     3    29    1
     6     3    33    1
     7     4     5    1
     8     5     6    1
     9     5     7    1
    10     5    35    1
    11     7     8    1
    12     8     9   ar
    13     8    13   ar
    14     9    10   ar
    15     9    36    1
    16    10    11   ar
    17    10    26    1
    18    11    12   ar
    19    11    14    1
    20    12    13   ar
    21    12    17    1
    22    13    37    1
    23    14    15    1
    24    14    25    2
    25    15    16    1
    26    15    38    1
    27    15    39    1
    28    16    17    1
    29    16    18    1
    30    16    40    1
    31    18    19   ar
    32    18    23   ar
    33    19    20   ar
    34    19    41    1
    35    20    21   ar
    36    20    42    1
    37    21    22   ar
    38    21    24    1
    39    22    23   ar
    40    22    43    1
    41    23    44    1
    42    24    45    1
    43    26    46    1
    44    27    47    1
    45    28    48    1
    46    29    49    1
    47    30    50    1
    48     1    31    1
    49     1    27    1
    50     2    32    1
    51     2    28    1
    52     4    34    1
    53     4    30    1
