@<TRIPOS>MOLECULE
*****
 50 53 0 0 0
SMALL
GASTEIGER

@<TRIPOS>ATOM
     1 C         -0.27556   -1.476011   1.586273 C.3        1 UNL1     0.1889
     2 C         -0.466831   -0.984744   0.126132 C.3        1 UNL1     0.1342
     3 C         -1.929273   -0.909247   -0.338657 C.3        1 UNL1     0.1174
     4 C         -2.800379   -2.016115   0.260622 C.3        1 UNL1     0.1456
     5 C         -2.582354   -2.183774   1.775455 C.3        1 UNL1     0.2326
     6 O         -1.206607   -2.446316   2.042403 O.3        1 UNL1     -0.3076
     7 O         -3.112428   -1.096073   2.554718 O.3        1 UNL1     -0.4605
     8 C         -3.57984   -1.424355   3.814593 C.ar        1 UNL1     0.1310
     9 C         -4.633843   -2.303986   4.084088 C.ar        1 UNL1     0.0226
     10 C         -5.023045   -2.585869   5.398989 C.ar        1 UNL1     0.1343
     11 C         -4.351475   -2.012732   6.478039 C.ar        1 UNL1     0.1007
     12 C         -3.324111   -1.101089   6.22072 C.ar        1 UNL1     0.1389
     13 C         -2.934691   -0.815791   4.898453 C.ar        1 UNL1     0.0229
     14 C         -4.66599   -2.339899   7.888073 C.2        1 UNL1     0.1740
     15 C         -3.703237   -1.807445   8.908439 C.3        1 UNL1     0.0520
     16 C         -3.301954   -0.396189   8.501887 C.3        1 UNL1     0.1322
     17 O         -2.667995   -0.397218   7.203748 O.3        1 UNL1     -0.4828
     18 C         -4.424025   0.632877   8.65906 C.ar        1 UNL1     -0.0067
     19 C         -4.133845   2.003579   8.500368 C.ar        1 UNL1     -0.0516
     20 C         -5.126239   2.973852   8.683912 C.ar        1 UNL1     -0.0198
     21 C         -6.408025   2.587602   9.032716 C.ar        1 UNL1     0.1169
     22 C         -6.732578   1.243572   9.163428 C.ar        1 UNL1     -0.0198
     23 C         -5.744833   0.272084   8.961863 C.ar        1 UNL1     -0.0516
     24 O         -7.338889   3.562717   9.240188 O.3        1 UNL1     -0.5068
     25 O         -5.600156   -3.064014   8.221955 O.2        1 UNL1     -0.2917
     26 O         -6.059377   -3.451698   5.593772 O.3        1 UNL1     -0.5058
     27 O         -0.117994   -0.421016   2.521657 O.3        1 UNL1     -0.3648
     28 O         0.216152   -1.895877   -0.754822 O.3        1 UNL1     -0.3841
     29 O         -2.464725   0.39713   -0.117745 O.3        1 UNL1     -0.3863
     30 O         -2.493913   -3.266636   -0.393569 O.3        1 UNL1     -0.3829
     31 H         0.68224   -2.006941   1.614764 H        1 UNL1     0.0937
     32 H         0.0   0.0   0.0 H        1 UNL1     0.0671
     33 H         -1.942422   -1.049491   -1.428556 H        1 UNL1     0.0649
     34 H         -3.858155   -1.804754   0.068689 H        1 UNL1     0.0683
     35 H         -3.135451   -3.098571   2.022656 H        1 UNL1     0.1085
     36 H         -5.159079   -2.824572   3.290842 H        1 UNL1     0.0691
     37 H         -2.13265   -0.101594   4.724828 H        1 UNL1     0.0691
     38 H         -2.835459   -2.475431   8.925254 H        1 UNL1     0.0385
     39 H         -4.17548   -1.835248   9.896362 H        1 UNL1     0.0385
     40 H         -2.511925   -0.072524   9.192985 H        1 UNL1     0.0789
     41 H         -3.133267   2.332995   8.235828 H        1 UNL1     0.0623
     42 H         -4.887146   4.02834   8.570333 H        1 UNL1     0.0654
     43 H         -7.736823   0.929282   9.421545 H        1 UNL1     0.0654
     44 H         -6.036169   -0.769055   9.061849 H        1 UNL1     0.0623
     45 H         -6.874859   4.397034   9.417126 H        1 UNL1     0.2921
     46 H         -5.831492   -4.075045   6.301528 H        1 UNL1     0.2922
     47 H         -0.981184   -0.132841   2.84986 H        1 UNL1     0.2126
     48 H         -0.373232   -2.039668   -1.520121 H        1 UNL1     0.2101
     49 H         -2.976731   0.408873   0.706577 H        1 UNL1     0.2100
     50 H         -2.936748   -3.266224   -1.267416 H        1 UNL1     0.2102
@<TRIPOS>BOND
     1     1     2    1
     2     1     6    1
     3     2     3    1
     4     3     4    1
     5     3    29    1
     6     3    33    1
     7     4     5    1
     8     5     6    1
     9     5     7    1
    10     5    35    1
    11     7     8    1
    12     8     9   ar
    13     8    13   ar
    14     9    10   ar
    15     9    36    1
    16    10    11   ar
    17    10    26    1
    18    11    12   ar
    19    11    14    1
    20    12    13   ar
    21    12    17    1
    22    13    37    1
    23    14    15    1
    24    14    25    2
    25    15    16    1
    26    15    38    1
    27    15    39    1
    28    16    17    1
    29    16    18    1
    30    16    40    1
    31    18    19   ar
    32    18    23   ar
    33    19    20   ar
    34    19    41    1
    35    20    21   ar
    36    20    42    1
    37    21    22   ar
    38    21    24    1
    39    22    23   ar
    40    22    43    1
    41    23    44    1
    42    24    45    1
    43    26    46    1
    44    27    47    1
    45    28    48    1
    46    29    49    1
    47    30    50    1
    48     1    31    1
    49     1    27    1
    50     2    32    1
    51     2    28    1
    52     4    34    1
    53     4    30    1
