@<TRIPOS>MOLECULE
*****
 50 53 0 0 0
SMALL
GASTEIGER

@<TRIPOS>ATOM
     1 C         -0.36581   -1.395971   1.639589 C.3        1 UNL1     0.1889
     2 C         -0.485331   -0.972232   0.150932 C.3        1 UNL1     0.1342
     3 C         -1.924521   -0.902014   -0.382235 C.3        1 UNL1     0.1174
     4 C         -2.836369   -1.969169   0.228363 C.3        1 UNL1     0.1456
     5 C         -2.688149   -2.067402   1.757659 C.3        1 UNL1     0.2326
     6 O         -1.329318   -2.332814   2.098252 O.3        1 UNL1     -0.3076
     7 O         -3.237462   -0.937996   2.460522 O.3        1 UNL1     -0.4605
     8 C         -3.7648   -1.20085   3.712061 C.ar        1 UNL1     0.1310
     9 C         -4.605391   -2.273577   4.028235 C.ar        1 UNL1     0.0226
     10 C         -5.075092   -2.464807   5.333116 C.ar        1 UNL1     0.1343
     11 C         -4.695977   -1.600649   6.359441 C.ar        1 UNL1     0.1007
     12 C         -3.890136   -0.502338   6.047808 C.ar        1 UNL1     0.1389
     13 C         -3.42013   -0.308774   4.735155 C.ar        1 UNL1     0.0229
     14 C         -5.094646   -1.803586   7.771544 C.2        1 UNL1     0.1740
     15 C         -4.418062   -0.912768   8.771657 C.3        1 UNL1     0.0520
     16 C         -4.315622   0.486007   8.179295 C.3        1 UNL1     0.1322
     17 O         -3.545093   0.470243   6.957368 O.3        1 UNL1     -0.4828
     18 C         -5.660024   1.209771   8.072192 C.ar        1 UNL1     -0.0067
     19 C         -5.686033   2.572637   7.711449 C.ar        1 UNL1     -0.0516
     20 C         -6.894611   3.276615   7.650483 C.ar        1 UNL1     -0.0198
     21 C         -8.080561   2.63243   7.954417 C.ar        1 UNL1     0.1169
     22 C         -8.090682   1.282454   8.280456 C.ar        1 UNL1     -0.0198
     23 C         -6.884153   0.57359   8.323541 C.ar        1 UNL1     -0.0516
     24 O         -9.233807   3.35997   7.921111 O.3        1 UNL1     -0.5068
     25 O         -5.864469   -2.688361   8.136279 O.2        1 UNL1     -0.2917
     26 O         -5.892752   -3.529912   5.575123 O.3        1 UNL1     -0.5058
     27 O         -0.235606   -0.299747   2.530726 O.3        1 UNL1     -0.3648
     28 O         0.223646   -1.931855   -0.654787 O.3        1 UNL1     -0.3841
     29 O         -2.451429   0.419431   -0.247019 O.3        1 UNL1     -0.3863
     30 O         -2.518193   -3.252708   -0.352138 O.3        1 UNL1     -0.3829
     31 H         0.582465   -1.935937   1.735975 H        1 UNL1     0.0937
     32 H         0.0   0.0   0.0 H        1 UNL1     0.0671
     33 H         -1.891151   -1.093552   -1.463864 H        1 UNL1     0.0649
     34 H         -3.881601   -1.754982   -0.020667 H        1 UNL1     0.0683
     35 H         -3.264079   -2.963044   2.022249 H        1 UNL1     0.1085
     36 H         -4.890986   -3.011915   3.287011 H        1 UNL1     0.0691
     37 H         -2.794963   0.554719   4.51827 H        1 UNL1     0.0691
     38 H         -3.425598   -1.331352   8.969973 H        1 UNL1     0.0385
     39 H         -4.987841   -0.92558   9.707053 H        1 UNL1     0.0385
     40 H         -3.71566   1.088783   8.874439 H        1 UNL1     0.0789
     41 H         -4.767798   3.103299   7.477157 H        1 UNL1     0.0623
     42 H         -6.900344   4.330282   7.382594 H        1 UNL1     0.0654
     43 H         -9.015271   0.764434   8.505624 H        1 UNL1     0.0654
     44 H         -6.930336   -0.48242   8.571645 H        1 UNL1     0.0623
     45 H         -9.191554   4.033859   8.618825 H        1 UNL1     0.2921
     46 H         -5.619292   -3.96758   6.396754 H        1 UNL1     0.2922
     47 H         0.50794   0.259942   2.266628 H        1 UNL1     0.2126
     48 H         1.175585   -1.777349   -0.500926 H        1 UNL1     0.2101
     49 H         -2.146775   0.973147   -0.983482 H        1 UNL1     0.2100
     50 H         -2.776225   -3.228637   -1.296888 H        1 UNL1     0.2102
@<TRIPOS>BOND
     1     1     2    1
     2     1     6    1
     3     2     3    1
     4     3     4    1
     5     3    29    1
     6     3    33    1
     7     4     5    1
     8     5     6    1
     9     5     7    1
    10     5    35    1
    11     7     8    1
    12     8     9   ar
    13     8    13   ar
    14     9    10   ar
    15     9    36    1
    16    10    11   ar
    17    10    26    1
    18    11    12   ar
    19    11    14    1
    20    12    13   ar
    21    12    17    1
    22    13    37    1
    23    14    15    1
    24    14    25    2
    25    15    16    1
    26    15    38    1
    27    15    39    1
    28    16    17    1
    29    16    18    1
    30    16    40    1
    31    18    19   ar
    32    18    23   ar
    33    19    20   ar
    34    19    41    1
    35    20    21   ar
    36    20    42    1
    37    21    22   ar
    38    21    24    1
    39    22    23   ar
    40    22    43    1
    41    23    44    1
    42    24    45    1
    43    26    46    1
    44    27    47    1
    45    28    48    1
    46    29    49    1
    47    30    50    1
    48     1    31    1
    49     1    27    1
    50     2    32    1
    51     2    28    1
    52     4    34    1
    53     4    30    1
