@<TRIPOS>MOLECULE
*****
 50 53 0 0 0
SMALL
GASTEIGER

@<TRIPOS>ATOM
     1 C         -1.530847   -0.101013   1.554705 C.3        1 UNL1     0.1889
     2 C         -0.989799   0.428976   0.199597 C.3        1 UNL1     0.1342
     3 C         -0.902247   1.959528   0.098554 C.3        1 UNL1     0.1174
     4 C         -2.0316   2.669453   0.849343 C.3        1 UNL1     0.1456
     5 C         -2.251057   2.098677   2.262289 C.3        1 UNL1     0.2326
     6 O         -2.518923   0.700388   2.185465 O.3        1 UNL1     -0.3076
     7 O         -1.192473   2.422339   3.182052 O.3        1 UNL1     -0.4605
     8 C         -0.493231   1.348774   3.703632 C.ar        1 UNL1     0.1310
     9 C         -0.522905   0.042436   3.20373 C.ar        1 UNL1     0.0226
     10 C         0.236327   -0.975448   3.793122 C.ar        1 UNL1     0.1343
     11 C         1.062841   -0.706189   4.883175 C.ar        1 UNL1     0.1007
     12 C         1.069431   0.585354   5.416707 C.ar        1 UNL1     0.1389
     13 C         0.303911   1.608057   4.825531 C.ar        1 UNL1     0.0229
     14 C         1.949714   -1.724355   5.492231 C.2        1 UNL1     0.1740
     15 C         2.929736   -1.209401   6.505112 C.3        1 UNL1     0.0520
     16 C         2.230902   -0.164125   7.363592 C.3        1 UNL1     0.1322
     17 O         1.762098   0.935551   6.552418 O.3        1 UNL1     -0.4828
     18 C         1.179235   -0.747397   8.310436 C.ar        1 UNL1     -0.0067
     19 C         1.365135   -2.041151   8.839449 C.ar        1 UNL1     -0.0516
     20 C         0.400196   -2.622932   9.670344 C.ar        1 UNL1     -0.0198
     21 C         -0.755708   -1.925741   9.973062 C.ar        1 UNL1     0.1169
     22 C         -0.952104   -0.63686   9.494467 C.ar        1 UNL1     -0.0198
     23 C         0.021113   -0.047649   8.678542 C.ar        1 UNL1     -0.0516
     24 O         -1.690138   -2.53933   10.754567 O.3        1 UNL1     -0.5068
     25 O         1.958807   -2.904176   5.15102 O.2        1 UNL1     -0.2917
     26 O         0.161939   -2.228372   3.258116 O.3        1 UNL1     -0.5058
     27 O         -0.508474   -0.482201   2.461477 O.3        1 UNL1     -0.3648
     28 O         -1.86798   -0.020035   -0.849161 O.3        1 UNL1     -0.3841
     29 O         0.394218   2.419862   0.485083 O.3        1 UNL1     -0.3863
     30 O         -3.257854   2.534182   0.098549 O.3        1 UNL1     -0.3829
     31 H         -2.059819   -1.035177   1.336518 H        1 UNL1     0.0937
     32 H         0.0   0.0   0.0 H        1 UNL1     0.0671
     33 H         -1.004672   2.232049   -0.961145 H        1 UNL1     0.0649
     34 H         -1.816614   3.741345   0.921664 H        1 UNL1     0.0683
     35 H         -3.175384   2.582291   2.602316 H        1 UNL1     0.1085
     36 H         -1.101918   -0.218711   2.324716 H        1 UNL1     0.0691
     37 H         0.325599   2.604912   5.260622 H        1 UNL1     0.0691
     38 H         3.772206   -0.772449   5.958447 H        1 UNL1     0.0385
     39 H         3.306165   -2.048944   7.099458 H        1 UNL1     0.0385
     40 H         2.993911   0.281693   8.015959 H        1 UNL1     0.0789
     41 H         2.259663   -2.612578   8.60936 H        1 UNL1     0.0623
     42 H         0.549681   -3.625911   10.062391 H        1 UNL1     0.0654
     43 H         -1.846746   -0.07612   9.737565 H        1 UNL1     0.0654
     44 H         -0.160363   0.964828   8.330976 H        1 UNL1     0.0623
     45 H         -1.405662   -3.454275   10.911621 H        1 UNL1     0.2921
     46 H         -0.684822   -2.333127   2.796127 H        1 UNL1     0.2922
     47 H         -0.718305   -1.337201   2.862481 H        1 UNL1     0.2126
     48 H         -2.3587   0.765587   -1.158554 H        1 UNL1     0.2101
     49 H         0.881182   1.704316   0.924007 H        1 UNL1     0.2100
     50 H         -3.393914   1.582063   -0.087647 H        1 UNL1     0.2102
@<TRIPOS>BOND
     1     1     2    1
     2     1     6    1
     3     2     3    1
     4     3     4    1
     5     3    29    1
     6     3    33    1
     7     4     5    1
     8     5     6    1
     9     5     7    1
    10     5    35    1
    11     7     8    1
    12     8     9   ar
    13     8    13   ar
    14     9    10   ar
    15     9    36    1
    16    10    11   ar
    17    10    26    1
    18    11    12   ar
    19    11    14    1
    20    12    13   ar
    21    12    17    1
    22    13    37    1
    23    14    15    1
    24    14    25    2
    25    15    16    1
    26    15    38    1
    27    15    39    1
    28    16    17    1
    29    16    18    1
    30    16    40    1
    31    18    19   ar
    32    18    23   ar
    33    19    20   ar
    34    19    41    1
    35    20    21   ar
    36    20    42    1
    37    21    22   ar
    38    21    24    1
    39    22    23   ar
    40    22    43    1
    41    23    44    1
    42    24    45    1
    43    26    46    1
    44    27    47    1
    45    28    48    1
    46    29    49    1
    47    30    50    1
    48     1    31    1
    49     1    27    1
    50     2    32    1
    51     2    28    1
    52     4    34    1
    53     4    30    1
