@<TRIPOS>MOLECULE
*****
 50 53 0 0 0
SMALL
GASTEIGER

@<TRIPOS>ATOM
     1 C         -0.032094   -1.558883   -1.529594 C.3        1 UNL1     0.1889
     2 C         -0.722739   -0.448608   -0.692792 C.3        1 UNL1     0.1342
     3 C         -1.953575   -0.914942   0.099699 C.3        1 UNL1     0.1174
     4 C         -2.758496   -1.991136   -0.633121 C.3        1 UNL1     0.1456
     5 C         -1.866159   -3.105449   -1.209667 C.3        1 UNL1     0.2326
     6 O         -0.891377   -2.543372   -2.085301 O.3        1 UNL1     -0.3076
     7 O         -1.295958   -3.961617   -0.203104 O.3        1 UNL1     -0.4605
     8 C         -0.43429   -4.942971   -0.659174 C.ar        1 UNL1     0.1310
     9 C         -0.051125   -5.129502   -1.991725 C.ar        1 UNL1     0.0226
     10 C         0.843082   -6.144507   -2.352367 C.ar        1 UNL1     0.1343
     11 C         1.39481   -6.983343   -1.385005 C.ar        1 UNL1     0.1007
     12 C         0.988218   -6.833107   -0.056511 C.ar        1 UNL1     0.1389
     13 C         0.087051   -5.814145   0.305492 C.ar        1 UNL1     0.0229
     14 C         2.407865   -8.017447   -1.698857 C.2        1 UNL1     0.1740
     15 C         3.055094   -8.672915   -0.514372 C.3        1 UNL1     0.0520
     16 C         1.988244   -8.916432   0.544159 C.3        1 UNL1     0.1322
     17 O         1.384456   -7.671464   0.959569 O.3        1 UNL1     -0.4828
     18 C         0.98793   -10.012832   0.16999 C.ar        1 UNL1     -0.0067
     19 C         1.419857   -11.353825   0.111742 C.ar        1 UNL1     -0.0516
     20 C         0.54277   -12.374918   -0.273029 C.ar        1 UNL1     -0.0198
     21 C         -0.763764   -12.067728   -0.608338 C.ar        1 UNL1     0.1169
     22 C         -1.227699   -10.761122   -0.528437 C.ar        1 UNL1     -0.0198
     23 C         -0.355827   -9.742364   -0.125913 C.ar        1 UNL1     -0.0516
     24 O         -1.578563   -13.083249   -1.014811 O.3        1 UNL1     -0.5068
     25 O         2.771169   -8.283184   -2.841607 O.2        1 UNL1     -0.2917
     26 O         1.175316   -6.274046   -3.669343 O.3        1 UNL1     -0.5058
     27 O         1.084358   -2.144962   -0.879339 O.3        1 UNL1     -0.3648
     28 O         -1.158159   0.592272   -1.587044 O.3        1 UNL1     -0.3841
     29 O         -1.58583   -1.304852   1.424412 O.3        1 UNL1     -0.3863
     30 O         -3.493354   -1.378622   -1.715017 O.3        1 UNL1     -0.3829
     31 H         0.396175   -1.066643   -2.409573 H        1 UNL1     0.0937
     32 H         0.0   0.0   0.0 H        1 UNL1     0.0671
     33 H         -2.619605   -0.049755   0.224504 H        1 UNL1     0.0649
     34 H         -3.496262   -2.433371   0.045503 H        1 UNL1     0.0683
     35 H         -2.550004   -3.696927   -1.831269 H        1 UNL1     0.1085
     36 H         -0.401283   -4.47532   -2.782646 H        1 UNL1     0.0691
     37 H         -0.214518   -5.718856   1.34639 H        1 UNL1     0.0691
     38 H         3.831515   -7.995052   -0.143968 H        1 UNL1     0.0385
     39 H         3.537576   -9.601736   -0.8373 H        1 UNL1     0.0385
     40 H         2.501668   -9.285684   1.442251 H        1 UNL1     0.0789
     41 H         2.442956   -11.619663   0.361236 H        1 UNL1     0.0623
     42 H         0.891029   -13.403495   -0.325529 H        1 UNL1     0.0654
     43 H         -2.25298   -10.511572   -0.774271 H        1 UNL1     0.0654
     44 H         -0.754919   -8.734495   -0.064503 H        1 UNL1     0.0623
     45 H         -2.473374   -12.911493   -0.679358 H        1 UNL1     0.2921
     46 H         0.555686   -5.760514   -4.211335 H        1 UNL1     0.2922
     47 H         0.842978   -2.422569   0.015385 H        1 UNL1     0.2126
     48 H         -1.768248   1.160672   -1.078668 H        1 UNL1     0.2101
     49 H         -2.068268   -2.10781   1.677999 H        1 UNL1     0.2100
     50 H         -4.289987   -0.953121   -1.335494 H        1 UNL1     0.2102
@<TRIPOS>BOND
     1     1     2    1
     2     1     6    1
     3     2     3    1
     4     3     4    1
     5     3    29    1
     6     3    33    1
     7     4     5    1
     8     5     6    1
     9     5     7    1
    10     5    35    1
    11     7     8    1
    12     8     9   ar
    13     8    13   ar
    14     9    10   ar
    15     9    36    1
    16    10    11   ar
    17    10    26    1
    18    11    12   ar
    19    11    14    1
    20    12    13   ar
    21    12    17    1
    22    13    37    1
    23    14    15    1
    24    14    25    2
    25    15    16    1
    26    15    38    1
    27    15    39    1
    28    16    17    1
    29    16    18    1
    30    16    40    1
    31    18    19   ar
    32    18    23   ar
    33    19    20   ar
    34    19    41    1
    35    20    21   ar
    36    20    42    1
    37    21    22   ar
    38    21    24    1
    39    22    23   ar
    40    22    43    1
    41    23    44    1
    42    24    45    1
    43    26    46    1
    44    27    47    1
    45    28    48    1
    46    29    49    1
    47    30    50    1
    48     1    31    1
    49     1    27    1
    50     2    32    1
    51     2    28    1
    52     4    34    1
    53     4    30    1
