@<TRIPOS>MOLECULE
*****
 50 53 0 0 0
SMALL
GASTEIGER

@<TRIPOS>ATOM
     1 C         -0.330276   -1.327176   1.703034 C.3        1 UNL1     0.1889
     2 C         -0.461625   -0.975591   0.196689 C.3        1 UNL1     0.1342
     3 C         -1.902684   -0.964599   -0.33594 C.3        1 UNL1     0.1174
     4 C         -2.787904   -2.023997   0.325254 C.3        1 UNL1     0.1456
     5 C         -2.635652   -2.047953   1.857119 C.3        1 UNL1     0.2326
     6 O         -1.270447   -2.264691   2.206561 O.3        1 UNL1     -0.3076
     7 O         -3.211197   -0.900809   2.508371 O.3        1 UNL1     -0.4605
     8 C         -3.726838   -1.117252   3.773596 C.ar        1 UNL1     0.1310
     9 C         -4.546835   -2.189257   4.141988 C.ar        1 UNL1     0.0226
     10 C         -5.005796   -2.330815   5.456985 C.ar        1 UNL1     0.1343
     11 C         -4.636025   -1.41589   6.441882 C.ar        1 UNL1     0.1007
     12 C         -3.851191   -0.318725   6.077123 C.ar        1 UNL1     0.1389
     13 C         -3.39201   -0.175172   4.754256 C.ar        1 UNL1     0.0229
     14 C         -5.02316   -1.563199   7.864056 C.2        1 UNL1     0.1740
     15 C         -4.35658   -0.617698   8.819696 C.3        1 UNL1     0.0520
     16 C         -4.281839   0.75516   8.165762 C.3        1 UNL1     0.1322
     17 O         -3.518029   0.698771   6.940819 O.3        1 UNL1     -0.4828
     18 C         -5.63922   1.450343   8.035517 C.ar        1 UNL1     -0.0067
     19 C         -6.011868   2.015788   6.798739 C.ar        1 UNL1     -0.0516
     20 C         -7.225246   2.699823   6.658126 C.ar        1 UNL1     -0.0198
     21 C         -8.069435   2.831344   7.746186 C.ar        1 UNL1     0.1169
     22 C         -7.745526   2.256627   8.968324 C.ar        1 UNL1     -0.0198
     23 C         -6.540701   1.556664   9.104358 C.ar        1 UNL1     -0.0516
     24 O         -9.225095   3.536782   7.581235 O.3        1 UNL1     -0.5068
     25 O         -5.7754   -2.444109   8.272245 O.2        1 UNL1     -0.2917
     26 O         -5.803415   -3.398083   5.750802 O.3        1 UNL1     -0.5058
     27 O         -0.225492   -0.188179   2.542376 O.3        1 UNL1     -0.3648
     28 O         0.269336   -1.954098   -0.565495 O.3        1 UNL1     -0.3841
     29 O         -2.461087   0.34866   -0.260635 O.3        1 UNL1     -0.3863
     30 O         -2.439584   -3.324961   -0.196143 O.3        1 UNL1     -0.3829
     31 H         0.630825   -1.839216   1.822106 H        1 UNL1     0.0937
     32 H         0.0   0.0   0.0 H        1 UNL1     0.0671
     33 H         -1.865926   -1.205003   -1.407656 H        1 UNL1     0.0649
     34 H         -3.838266   -1.846666   0.068942 H        1 UNL1     0.0683
     35 H         -3.189566   -2.943984   2.164015 H        1 UNL1     0.1085
     36 H         -4.823692   -2.964334   3.435783 H        1 UNL1     0.0691
     37 H         -2.7832   0.688516   4.49563 H        1 UNL1     0.0691
     38 H         -3.35588   -1.010056   9.02989 H        1 UNL1     0.0385
     39 H         -4.920785   -0.599039   9.758367 H        1 UNL1     0.0385
     40 H         -3.688567   1.398187   8.829888 H        1 UNL1     0.0789
     41 H         -5.362483   1.934171   5.93197 H        1 UNL1     0.0623
     42 H         -7.49587   3.141694   5.702342 H        1 UNL1     0.0654
     43 H         -8.406256   2.340662   9.822891 H        1 UNL1     0.0654
     44 H         -6.324563   1.1114   10.070727 H        1 UNL1     0.0623
     45 H         -8.996242   4.444111   7.322204 H        1 UNL1     0.2921
     46 H         -5.403113   -3.913089   6.469091 H        1 UNL1     0.2922
     47 H         0.517058   0.365805   2.263843 H        1 UNL1     0.2126
     48 H         1.202201   -1.887819   -0.284241 H        1 UNL1     0.2101
     49 H         -2.022926   0.930829   -0.901639 H        1 UNL1     0.2100
     50 H         -2.673215   -3.340975   -1.147391 H        1 UNL1     0.2102
@<TRIPOS>BOND
     1     1     2    1
     2     1     6    1
     3     2     3    1
     4     3     4    1
     5     3    29    1
     6     3    33    1
     7     4     5    1
     8     5     6    1
     9     5     7    1
    10     5    35    1
    11     7     8    1
    12     8     9   ar
    13     8    13   ar
    14     9    10   ar
    15     9    36    1
    16    10    11   ar
    17    10    26    1
    18    11    12   ar
    19    11    14    1
    20    12    13   ar
    21    12    17    1
    22    13    37    1
    23    14    15    1
    24    14    25    2
    25    15    16    1
    26    15    38    1
    27    15    39    1
    28    16    17    1
    29    16    18    1
    30    16    40    1
    31    18    19   ar
    32    18    23   ar
    33    19    20   ar
    34    19    41    1
    35    20    21   ar
    36    20    42    1
    37    21    22   ar
    38    21    24    1
    39    22    23   ar
    40    22    43    1
    41    23    44    1
    42    24    45    1
    43    26    46    1
    44    27    47    1
    45    28    48    1
    46    29    49    1
    47    30    50    1
    48     1    31    1
    49     1    27    1
    50     2    32    1
    51     2    28    1
    52     4    34    1
    53     4    30    1
