@<TRIPOS>MOLECULE
*****
 50 53 0 0 0
SMALL
GASTEIGER

@<TRIPOS>ATOM
     1 C         0.462251   -0.612143   -2.045094 C.3        1 UNL1     0.1889
     2 C         -0.525269   -0.431773   -0.860945 C.3        1 UNL1     0.1342
     3 C         -1.238371   -1.718852   -0.418926 C.3        1 UNL1     0.1174
     4 C         -1.543199   -2.659666   -1.587286 C.3        1 UNL1     0.1456
     5 C         -0.336768   -2.8457   -2.525518 C.3        1 UNL1     0.2326
     6 O         0.095852   -1.579501   -3.017907 O.3        1 UNL1     -0.3076
     7 O         0.72762   -3.620364   -1.943888 O.3        1 UNL1     -0.4605
     8 C         1.468101   -4.389554   -2.823413 C.ar        1 UNL1     0.1310
     9 C         0.939649   -5.201047   -3.833124 C.ar        1 UNL1     0.0226
     10 C         1.775422   -5.930921   -4.686745 C.ar        1 UNL1     0.1343
     11 C         3.161985   -5.848328   -4.566481 C.ar        1 UNL1     0.1007
     12 C         3.700607   -5.073452   -3.535832 C.ar        1 UNL1     0.1389
     13 C         2.859968   -4.341741   -2.675974 C.ar        1 UNL1     0.0229
     14 C         4.0929   -6.531785   -5.494078 C.2        1 UNL1     0.1740
     15 C         5.539041   -6.155867   -5.356559 C.3        1 UNL1     0.0520
     16 C         5.864056   -6.025082   -3.874933 C.3        1 UNL1     0.1322
     17 O         5.046286   -5.006054   -3.25857 O.3        1 UNL1     -0.4828
     18 C         5.883059   -7.360929   -3.128023 C.ar        1 UNL1     -0.0067
     19 C         7.108309   -7.870313   -2.651051 C.ar        1 UNL1     -0.0516
     20 C         7.167835   -9.111283   -2.005751 C.ar        1 UNL1     -0.0198
     21 C         6.012905   -9.854172   -1.838177 C.ar        1 UNL1     0.1169
     22 C         4.786269   -9.364119   -2.267188 C.ar        1 UNL1     -0.0198
     23 C         4.723671   -8.114859   -2.896067 C.ar        1 UNL1     -0.0516
     24 O         6.115565   -11.075143   -1.238935 O.3        1 UNL1     -0.5068
     25 O         3.723443   -7.29836   -6.379713 O.2        1 UNL1     -0.2917
     26 O         1.19683   -6.704366   -5.650383 O.3        1 UNL1     -0.5058
     27 O         1.812386   -0.765098   -1.637014 O.3        1 UNL1     -0.3648
     28 O         -1.542457   0.50802   -1.254419 O.3        1 UNL1     -0.3841
     29 O         -0.518406   -2.360937   0.635355 O.3        1 UNL1     -0.3863
     30 O         -2.646577   -2.125122   -2.350509 O.3        1 UNL1     -0.3829
     31 H         0.45477   0.329491   -2.604869 H        1 UNL1     0.0937
     32 H         0.0   0.0   0.0 H        1 UNL1     0.0671
     33 H         -2.204739   -1.433162   0.01952 H        1 UNL1     0.0649
     34 H         -1.860036   -3.637263   -1.207391 H        1 UNL1     0.0683
     35 H         -0.748904   -3.39645   -3.380326 H        1 UNL1     0.1085
     36 H         -0.127818   -5.264099   -4.013847 H        1 UNL1     0.0691
     37 H         3.304119   -3.746864   -1.880773 H        1 UNL1     0.0691
     38 H         5.684883   -5.204067   -5.878415 H        1 UNL1     0.0385
     39 H         6.155667   -6.914656   -5.850311 H        1 UNL1     0.0385
     40 H         6.888784   -5.636437   -3.801399 H        1 UNL1     0.0789
     41 H         8.030339   -7.310586   -2.778402 H        1 UNL1     0.0623
     42 H         8.12049   -9.498642   -1.653029 H        1 UNL1     0.0654
     43 H         3.87345   -9.930854   -2.12761 H        1 UNL1     0.0654
     44 H         3.74711   -7.758188   -3.209052 H        1 UNL1     0.0623
     45 H         5.848188   -10.984307   -0.309971 H        1 UNL1     0.2921
     46 H         1.724339   -6.656826   -6.463332 H        1 UNL1     0.2922
     47 H         2.3289   0.012639   -1.890387 H        1 UNL1     0.2126
     48 H         -1.62527   1.152202   -0.525101 H        1 UNL1     0.2101
     49 H         0.03077   -3.074378   0.273137 H        1 UNL1     0.2100
     50 H         -2.994907   -1.345031   -1.871096 H        1 UNL1     0.2102
@<TRIPOS>BOND
     1     1     2    1
     2     1     6    1
     3     2     3    1
     4     3     4    1
     5     3    29    1
     6     3    33    1
     7     4     5    1
     8     5     6    1
     9     5     7    1
    10     5    35    1
    11     7     8    1
    12     8     9   ar
    13     8    13   ar
    14     9    10   ar
    15     9    36    1
    16    10    11   ar
    17    10    26    1
    18    11    12   ar
    19    11    14    1
    20    12    13   ar
    21    12    17    1
    22    13    37    1
    23    14    15    1
    24    14    25    2
    25    15    16    1
    26    15    38    1
    27    15    39    1
    28    16    17    1
    29    16    18    1
    30    16    40    1
    31    18    19   ar
    32    18    23   ar
    33    19    20   ar
    34    19    41    1
    35    20    21   ar
    36    20    42    1
    37    21    22   ar
    38    21    24    1
    39    22    23   ar
    40    22    43    1
    41    23    44    1
    42    24    45    1
    43    26    46    1
    44    27    47    1
    45    28    48    1
    46    29    49    1
    47    30    50    1
    48     1    31    1
    49     1    27    1
    50     2    32    1
    51     2    28    1
    52     4    34    1
    53     4    30    1
