@<TRIPOS>MOLECULE
*****
 50 53 0 0 0
SMALL
GASTEIGER

@<TRIPOS>ATOM
     1 C         -0.314691   -1.374194   1.668342 C.3        1 UNL1     0.1889
     2 C         -0.458923   -0.98126   0.173437 C.3        1 UNL1     0.1342
     3 C         -1.904365   -0.957429   -0.346748 C.3        1 UNL1     0.1174
     4 C         -2.782921   -2.035864   0.292185 C.3        1 UNL1     0.1456
     5 C         -2.617928   -2.101973   1.821489 C.3        1 UNL1     0.2326
     6 O         -1.249636   -2.326505   2.153499 O.3        1 UNL1     -0.3076
     7 O         -3.189284   -0.974031   2.508964 O.3        1 UNL1     -0.4605
     8 C         -3.697998   -1.226947   3.770222 C.ar        1 UNL1     0.1310
     9 C         -4.507937   -2.314598   4.114194 C.ar        1 UNL1     0.0226
     10 C         -4.960364   -2.493475   5.426907 C.ar        1 UNL1     0.1343
     11 C         -4.593836   -1.601129   6.433493 C.ar        1 UNL1     0.1007
     12 C         -3.819244   -0.488703   6.093934 C.ar        1 UNL1     0.1389
     13 C         -3.366644   -0.307628   4.773405 C.ar        1 UNL1     0.0229
     14 C         -4.973955   -1.787922   7.85292 C.2        1 UNL1     0.1740
     15 C         -4.310992   -0.861873   8.829887 C.3        1 UNL1     0.0520
     16 C         -4.24984   0.527839   8.211085 C.3        1 UNL1     0.1322
     17 O         -3.490635   0.508987   6.982133 O.3        1 UNL1     -0.4828
     18 C         -5.613222   1.215187   8.103997 C.ar        1 UNL1     -0.0067
     19 C         -5.749394   2.360969   7.293532 C.ar        1 UNL1     -0.0516
     20 C         -6.970184   3.041238   7.210646 C.ar        1 UNL1     -0.0198
     21 C         -8.057819   2.591059   7.93743 C.ar        1 UNL1     0.1169
     22 C         -7.963986   1.446314   8.718195 C.ar        1 UNL1     -0.0198
     23 C         -6.748373   0.755204   8.786815 C.ar        1 UNL1     -0.0516
     24 O         -9.219886   3.301131   7.861277 O.3        1 UNL1     -0.5068
     25 O         -5.717494   -2.68502   8.241313 O.2        1 UNL1     -0.2917
     26 O         -5.74827   -3.5743   5.696365 O.3        1 UNL1     -0.5058
     27 O         -0.20417   -0.258708   2.537975 O.3        1 UNL1     -0.3648
     28 O         0.266741   -1.937359   -0.621543 O.3        1 UNL1     -0.3841
     29 O         -2.463542   0.352512   -0.230527 O.3        1 UNL1     -0.3863
     30 O         -2.437538   -3.321455   -0.267864 O.3        1 UNL1     -0.3829
     31 H         0.647918   -1.888073   1.765251 H        1 UNL1     0.0937
     32 H         0.0   0.0   0.0 H        1 UNL1     0.0671
     33 H         -1.876248   -1.168056   -1.424971 H        1 UNL1     0.0649
     34 H         -3.835565   -1.852888   0.049572 H        1 UNL1     0.0683
     35 H         -3.168307   -3.006873   2.108051 H        1 UNL1     0.1085
     36 H         -4.781522   -3.073537   3.389431 H        1 UNL1     0.0691
     37 H         -2.765779   0.567269   4.534641 H        1 UNL1     0.0691
     38 H         -3.306354   -1.251422   9.026051 H        1 UNL1     0.0385
     39 H         -4.871475   -0.8718   9.770918 H        1 UNL1     0.0385
     40 H         -3.658975   1.158399   8.889166 H        1 UNL1     0.0789
     41 H         -4.90811   2.739685   6.720412 H        1 UNL1     0.0623
     42 H         -7.0593   3.930457   6.591486 H        1 UNL1     0.0654
     43 H         -8.81361   1.076399   9.279633 H        1 UNL1     0.0654
     44 H         -6.713842   -0.141325   9.39828 H        1 UNL1     0.0623
     45 H         -9.070404   4.17689   8.252963 H        1 UNL1     0.2921
     46 H         -5.353486   -4.090948   6.416526 H        1 UNL1     0.2922
     47 H         0.522342   0.314661   2.256396 H        1 UNL1     0.2126
     48 H         1.211574   -1.823818   -0.402155 H        1 UNL1     0.2101
     49 H         -2.037482   0.950684   -0.864923 H        1 UNL1     0.2100
     50 H         -2.704936   -3.321432   -1.210314 H        1 UNL1     0.2102
@<TRIPOS>BOND
     1     1     2    1
     2     1     6    1
     3     2     3    1
     4     3     4    1
     5     3    29    1
     6     3    33    1
     7     4     5    1
     8     5     6    1
     9     5     7    1
    10     5    35    1
    11     7     8    1
    12     8     9   ar
    13     8    13   ar
    14     9    10   ar
    15     9    36    1
    16    10    11   ar
    17    10    26    1
    18    11    12   ar
    19    11    14    1
    20    12    13   ar
    21    12    17    1
    22    13    37    1
    23    14    15    1
    24    14    25    2
    25    15    16    1
    26    15    38    1
    27    15    39    1
    28    16    17    1
    29    16    18    1
    30    16    40    1
    31    18    19   ar
    32    18    23   ar
    33    19    20   ar
    34    19    41    1
    35    20    21   ar
    36    20    42    1
    37    21    22   ar
    38    21    24    1
    39    22    23   ar
    40    22    43    1
    41    23    44    1
    42    24    45    1
    43    26    46    1
    44    27    47    1
    45    28    48    1
    46    29    49    1
    47    30    50    1
    48     1    31    1
    49     1    27    1
    50     2    32    1
    51     2    28    1
    52     4    34    1
    53     4    30    1
