@<TRIPOS>MOLECULE
*****
 50 53 0 0 0
SMALL
GASTEIGER

@<TRIPOS>ATOM
     1 C         -0.31781   -1.321227   1.710017 C.3        1 UNL1     0.1889
     2 C         -0.454971   -0.977554   0.202365 C.3        1 UNL1     0.1342
     3 C         -1.897336   -0.978167   -0.326832 C.3        1 UNL1     0.1174
     4 C         -2.774255   -2.040022   0.341446 C.3        1 UNL1     0.1456
     5 C         -2.618204   -2.055824   1.873034 C.3        1 UNL1     0.2326
     6 O         -1.250826   -2.26229   2.220192 O.3        1 UNL1     -0.3076
     7 O         -3.199445   -0.909295   2.520299 O.3        1 UNL1     -0.4605
     8 C         -3.7039   -1.121307   3.790773 C.ar        1 UNL1     0.1310
     9 C         -4.511394   -2.198026   4.172778 C.ar        1 UNL1     0.0226
     10 C         -4.959495   -2.334288   5.492074 C.ar        1 UNL1     0.1343
     11 C         -4.590945   -1.408994   6.467699 C.ar        1 UNL1     0.1007
     12 C         -3.818814   -0.307409   6.089404 C.ar        1 UNL1     0.1389
     13 C         -3.370569   -0.169208   4.762224 C.ar        1 UNL1     0.0229
     14 C         -4.966394   -1.549584   7.893682 C.2        1 UNL1     0.1740
     15 C         -4.301548   -0.591237   8.837662 C.3        1 UNL1     0.0520
     16 C         -4.244073   0.777508   8.173441 C.3        1 UNL1     0.1322
     17 O         -3.488687   0.719246   6.943373 O.3        1 UNL1     -0.4828
     18 C         -5.608644   1.459403   8.048189 C.ar        1 UNL1     -0.0067
     19 C         -5.995394   2.012546   6.810178 C.ar        1 UNL1     -0.0516
     20 C         -7.215947   2.684525   6.673584 C.ar        1 UNL1     -0.0198
     21 C         -8.053385   2.816202   7.766829 C.ar        1 UNL1     0.1169
     22 C         -7.715392   2.253241   8.990625 C.ar        1 UNL1     -0.0198
     23 C         -6.50328   1.565225   9.122815 C.ar        1 UNL1     -0.0516
     24 O         -9.216594   3.509932   7.605323 O.3        1 UNL1     -0.5068
     25 O         -5.70759   -2.434322   8.313627 O.2        1 UNL1     -0.2917
     26 O         -5.745198   -3.406603   5.799311 O.3        1 UNL1     -0.5058
     27 O         -0.218237   -0.177664   2.543765 O.3        1 UNL1     -0.3648
     28 O         0.280351   -1.954991   -0.556993 O.3        1 UNL1     -0.3841
     29 O         -2.463859   0.331876   -0.256326 O.3        1 UNL1     -0.3863
     30 O         -2.418951   -3.341192   -0.174697 O.3        1 UNL1     -0.3829
     31 H         0.646794   -1.82662   1.829165 H        1 UNL1     0.0937
     32 H         0.0   0.0   0.0 H        1 UNL1     0.0671
     33 H         -1.861611   -1.223362   -1.397496 H        1 UNL1     0.0649
     34 H         -3.826325   -1.870536   0.086841 H        1 UNL1     0.0683
     35 H         -3.165703   -2.953887   2.185455 H        1 UNL1     0.1085
     36 H         -4.786289   -2.980636   3.474154 H        1 UNL1     0.0691
     37 H         -2.771551   0.698082   4.493007 H        1 UNL1     0.0691
     38 H         -3.295813   -0.972987   9.043314 H        1 UNL1     0.0385
     39 H         -4.859075   -0.57095   9.780281 H        1 UNL1     0.0385
     40 H         -3.651885   1.430642   8.828613 H        1 UNL1     0.0789
     41 H         -5.351597   1.930593   5.939282 H        1 UNL1     0.0623
     42 H         -7.497515   3.117045   5.716684 H        1 UNL1     0.0654
     43 H         -8.370644   2.337422   9.849385 H        1 UNL1     0.0654
     44 H         -6.276087   1.128893   10.090722 H        1 UNL1     0.0623
     45 H         -8.997887   4.417608   7.33885 H        1 UNL1     0.2921
     46 H         -5.335536   -3.912202   6.519005 H        1 UNL1     0.2922
     47 H         0.520019   0.379774   2.260746 H        1 UNL1     0.2126
     48 H         1.21356   -1.881012   -0.278819 H        1 UNL1     0.2101
     49 H         -2.030919   0.913787   -0.901102 H        1 UNL1     0.2100
     50 H         -2.654742   -3.363147   -1.125293 H        1 UNL1     0.2102
@<TRIPOS>BOND
     1     1     2    1
     2     1     6    1
     3     2     3    1
     4     3     4    1
     5     3    29    1
     6     3    33    1
     7     4     5    1
     8     5     6    1
     9     5     7    1
    10     5    35    1
    11     7     8    1
    12     8     9   ar
    13     8    13   ar
    14     9    10   ar
    15     9    36    1
    16    10    11   ar
    17    10    26    1
    18    11    12   ar
    19    11    14    1
    20    12    13   ar
    21    12    17    1
    22    13    37    1
    23    14    15    1
    24    14    25    2
    25    15    16    1
    26    15    38    1
    27    15    39    1
    28    16    17    1
    29    16    18    1
    30    16    40    1
    31    18    19   ar
    32    18    23   ar
    33    19    20   ar
    34    19    41    1
    35    20    21   ar
    36    20    42    1
    37    21    22   ar
    38    21    24    1
    39    22    23   ar
    40    22    43    1
    41    23    44    1
    42    24    45    1
    43    26    46    1
    44    27    47    1
    45    28    48    1
    46    29    49    1
    47    30    50    1
    48     1    31    1
    49     1    27    1
    50     2    32    1
    51     2    28    1
    52     4    34    1
    53     4    30    1
