@<TRIPOS>MOLECULE
*****
 50 53 0 0 0
SMALL
GASTEIGER

@<TRIPOS>ATOM
     1 C         -0.336231   -1.331677   1.698349 C.3        1 UNL1     0.1889
     2 C         -0.4647   -0.974871   0.192984 C.3        1 UNL1     0.1342
     3 C         -1.905063   -0.957974   -0.341371 C.3        1 UNL1     0.1174
     4 C         -2.794172   -2.016912   0.315327 C.3        1 UNL1     0.1456
     5 C         -2.643879   -2.046235   1.847291 C.3        1 UNL1     0.2326
     6 O         -1.279742   -2.268066   2.197705 O.3        1 UNL1     -0.3076
     7 O         -3.216892   -0.899521   2.501527 O.3        1 UNL1     -0.4605
     8 C         -3.72835   -1.116976   3.768275 C.ar        1 UNL1     0.1310
     9 C         -4.547428   -2.189076   4.138429 C.ar        1 UNL1     0.0226
     10 C         -5.002017   -2.33171   5.454828 C.ar        1 UNL1     0.1343
     11 C         -4.628669   -1.417803   6.43932 C.ar        1 UNL1     0.1007
     12 C         -3.844734   -0.320535   6.07294 C.ar        1 UNL1     0.1389
     13 C         -3.389951   -0.1759   4.748673 C.ar        1 UNL1     0.0229
     14 C         -5.011074   -1.566307   7.86265 C.2        1 UNL1     0.1740
     15 C         -4.341008   -0.621885   8.816917 C.3        1 UNL1     0.0520
     16 C         -4.26805   0.751553   8.164 C.3        1 UNL1     0.1322
     17 O         -3.508371   0.696066   6.93645 O.3        1 UNL1     -0.4828
     18 C         -5.625651   1.447259   8.03895 C.ar        1 UNL1     -0.0067
     19 C         -6.478663   1.507833   9.160072 C.ar        1 UNL1     -0.0516
     20 C         -7.74628   2.09478   9.067314 C.ar        1 UNL1     -0.0198
     21 C         -8.174491   2.616953   7.859921 C.ar        1 UNL1     0.1169
     22 C         -7.344119   2.602201   6.746771 C.ar        1 UNL1     -0.0198
     23 C         -6.06925   2.031841   6.844012 C.ar        1 UNL1     -0.0516
     24 O         -9.429887   3.146623   7.798015 O.3        1 UNL1     -0.5068
     25 O         -5.762205   -2.447369   8.27255 O.2        1 UNL1     -0.2917
     26 O         -5.798966   -3.399011   5.750337 O.3        1 UNL1     -0.5058
     27 O         -0.229173   -0.195694   2.541479 O.3        1 UNL1     -0.3648
     28 O         0.264355   -1.953046   -0.57145 O.3        1 UNL1     -0.3841
     29 O         -2.459741   0.356654   -0.262524 O.3        1 UNL1     -0.3863
     30 O         -2.44899   -3.317202   -0.209828 O.3        1 UNL1     -0.3829
     31 H         0.623231   -1.846891   1.816949 H        1 UNL1     0.0937
     32 H         0.0   0.0   0.0 H        1 UNL1     0.0671
     33 H         -1.867682   -1.195038   -1.413809 H        1 UNL1     0.0649
     34 H         -3.843697   -1.835704   0.058301 H        1 UNL1     0.0683
     35 H         -3.200772   -2.941633   2.150624 H        1 UNL1     0.1085
     36 H         -4.826885   -2.963421   3.432444 H        1 UNL1     0.0691
     37 H         -2.781753   0.687845   4.488801 H        1 UNL1     0.0691
     38 H         -3.339726   -1.014734   9.023391 H        1 UNL1     0.0385
     39 H         -4.902055   -0.603924   9.757493 H        1 UNL1     0.0385
     40 H         -3.672359   1.393791   8.826724 H        1 UNL1     0.0789
     41 H         -6.169449   1.096896   10.116716 H        1 UNL1     0.0623
     42 H         -8.399483   2.124726   9.935899 H        1 UNL1     0.0654
     43 H         -7.663597   3.021773   5.800302 H        1 UNL1     0.0654
     44 H         -5.442971   2.047018   5.957226 H        1 UNL1     0.0623
     45 H         -10.068712   2.447183   8.011092 H        1 UNL1     0.2921
     46 H         -5.397618   -3.913439   6.468457 H        1 UNL1     0.2922
     47 H         0.513532   0.358528   2.263835 H        1 UNL1     0.2126
     48 H         1.199958   -1.878193   -0.30168 H        1 UNL1     0.2101
     49 H         -2.019218   0.939562   -0.901236 H        1 UNL1     0.2100
     50 H         -2.686717   -3.331397   -1.160089 H        1 UNL1     0.2102
@<TRIPOS>BOND
     1     1     2    1
     2     1     6    1
     3     2     3    1
     4     3     4    1
     5     3    29    1
     6     3    33    1
     7     4     5    1
     8     5     6    1
     9     5     7    1
    10     5    35    1
    11     7     8    1
    12     8     9   ar
    13     8    13   ar
    14     9    10   ar
    15     9    36    1
    16    10    11   ar
    17    10    26    1
    18    11    12   ar
    19    11    14    1
    20    12    13   ar
    21    12    17    1
    22    13    37    1
    23    14    15    1
    24    14    25    2
    25    15    16    1
    26    15    38    1
    27    15    39    1
    28    16    17    1
    29    16    18    1
    30    16    40    1
    31    18    19   ar
    32    18    23   ar
    33    19    20   ar
    34    19    41    1
    35    20    21   ar
    36    20    42    1
    37    21    22   ar
    38    21    24    1
    39    22    23   ar
    40    22    43    1
    41    23    44    1
    42    24    45    1
    43    26    46    1
    44    27    47    1
    45    28    48    1
    46    29    49    1
    47    30    50    1
    48     1    31    1
    49     1    27    1
    50     2    32    1
    51     2    28    1
    52     4    34    1
    53     4    30    1
