@<TRIPOS>MOLECULE
*****
 50 53 0 0 0
SMALL
GASTEIGER

@<TRIPOS>ATOM
     1 C         -0.326619   -1.366773   1.672141 C.3        1 UNL1     0.1889
     2 C         -0.462225   -0.979436   0.17497 C.3        1 UNL1     0.1342
     3 C         -1.904923   -0.954136   -0.352712 C.3        1 UNL1     0.1174
     4 C         -2.789397   -2.027867   0.285977 C.3        1 UNL1     0.1456
     5 C         -2.632399   -2.088296   1.816357 C.3        1 UNL1     0.2326
     6 O         -1.266383   -2.314854   2.156269 O.3        1 UNL1     -0.3076
     7 O         -3.204481   -0.956234   2.496415 O.3        1 UNL1     -0.4605
     8 C         -3.720268   -1.202885   3.75604 C.ar        1 UNL1     0.1310
     9 C         -4.54314   -2.281489   4.097795 C.ar        1 UNL1     0.0226
     10 C         -5.002019   -2.454686   5.409029 C.ar        1 UNL1     0.1343
     11 C         -4.629319   -1.565781   6.416394 C.ar        1 UNL1     0.1007
     12 C         -3.841538   -0.462018   6.078916 C.ar        1 UNL1     0.1389
     13 C         -3.382436   -0.28663   4.759865 C.ar        1 UNL1     0.0229
     14 C         -5.016349   -1.747616   7.834596 C.2        1 UNL1     0.1740
     15 C         -4.346766   -0.828242   8.81335 C.3        1 UNL1     0.0520
     16 C         -4.268406   0.560365   8.194008 C.3        1 UNL1     0.1322
     17 O         -3.505203   0.532567   6.967705 O.3        1 UNL1     -0.4828
     18 C         -5.623874   1.262394   8.081822 C.ar        1 UNL1     -0.0067
     19 C         -5.698049   2.53166   7.472171 C.ar        1 UNL1     -0.0516
     20 C         -6.913674   3.22185   7.395652 C.ar        1 UNL1     -0.0198
     21 C         -8.05823   2.658029   7.930372 C.ar        1 UNL1     0.1169
     22 C         -8.023502   1.395121   8.50717 C.ar        1 UNL1     -0.0198
     23 C         -6.811601   0.696743   8.567351 C.ar        1 UNL1     -0.0516
     24 O         -9.216336   3.376129   7.871015 O.3        1 UNL1     -0.5068
     25 O         -5.770913   -2.636373   8.220899 O.2        1 UNL1     -0.2917
     26 O         -5.802528   -3.526747   5.676343 O.3        1 UNL1     -0.5058
     27 O         -0.217799   -0.24811   2.5379 O.3        1 UNL1     -0.3648
     28 O         0.265136   -1.940463   -0.61248 O.3        1 UNL1     -0.3841
     29 O         -2.461451   0.357623   -0.244556 O.3        1 UNL1     -0.3863
     30 O         -2.444326   -3.316517   -0.267192 O.3        1 UNL1     -0.3829
     31 H         0.63421   -1.882617   1.776023 H        1 UNL1     0.0937
     32 H         0.0   0.0   0.0 H        1 UNL1     0.0671
     33 H         -1.871806   -1.169118   -1.429934 H        1 UNL1     0.0649
     34 H         -3.840331   -1.843281   0.037244 H        1 UNL1     0.0683
     35 H         -3.18647   -2.990699   2.103678 H        1 UNL1     0.1085
     36 H         -4.822432   -3.037838   3.372501 H        1 UNL1     0.0691
     37 H         -2.771295   0.581562   4.522708 H        1 UNL1     0.0691
     38 H         -3.347097   -1.228548   9.013207 H        1 UNL1     0.0385
     39 H         -4.910575   -0.831543   9.752439 H        1 UNL1     0.0385
     40 H         -3.673086   1.184875   8.873789 H        1 UNL1     0.0789
     41 H         -4.812076   2.999711   7.053088 H        1 UNL1     0.0623
     42 H         -6.955647   4.205125   6.933677 H        1 UNL1     0.0654
     43 H         -8.916807   0.937797   8.915547 H        1 UNL1     0.0654
     44 H         -6.823192   -0.29214   9.015481 H        1 UNL1     0.0623
     45 H         -9.097821   4.192165   8.383612 H        1 UNL1     0.2921
     46 H         -5.415863   -4.047226   6.398149 H        1 UNL1     0.2922
     47 H         0.511559   0.322354   2.25778 H        1 UNL1     0.2126
     48 H         1.210132   -1.820664   -0.397157 H        1 UNL1     0.2101
     49 H         -2.030674   0.952222   -0.879125 H        1 UNL1     0.2100
     50 H         -2.686156   -3.311666   -1.216512 H        1 UNL1     0.2102
@<TRIPOS>BOND
     1     1     2    1
     2     1     6    1
     3     2     3    1
     4     3     4    1
     5     3    29    1
     6     3    33    1
     7     4     5    1
     8     5     6    1
     9     5     7    1
    10     5    35    1
    11     7     8    1
    12     8     9   ar
    13     8    13   ar
    14     9    10   ar
    15     9    36    1
    16    10    11   ar
    17    10    26    1
    18    11    12   ar
    19    11    14    1
    20    12    13   ar
    21    12    17    1
    22    13    37    1
    23    14    15    1
    24    14    25    2
    25    15    16    1
    26    15    38    1
    27    15    39    1
    28    16    17    1
    29    16    18    1
    30    16    40    1
    31    18    19   ar
    32    18    23   ar
    33    19    20   ar
    34    19    41    1
    35    20    21   ar
    36    20    42    1
    37    21    22   ar
    38    21    24    1
    39    22    23   ar
    40    22    43    1
    41    23    44    1
    42    24    45    1
    43    26    46    1
    44    27    47    1
    45    28    48    1
    46    29    49    1
    47    30    50    1
    48     1    31    1
    49     1    27    1
    50     2    32    1
    51     2    28    1
    52     4    34    1
    53     4    30    1
