@<TRIPOS>MOLECULE
*****
 50 53 0 0 0
SMALL
GASTEIGER

@<TRIPOS>ATOM
     1 C         -0.398872   -1.40872   1.620868 C.3        1 UNL1     0.1889
     2 C         -0.501962   -0.965894   0.136544 C.3        1 UNL1     0.1342
     3 C         -1.936375   -0.86612   -0.404722 C.3        1 UNL1     0.1174
     4 C         -2.869277   -1.925303   0.187683 C.3        1 UNL1     0.1456
     5 C         -2.732484   -2.043624   1.716621 C.3        1 UNL1     0.2326
     6 O         -1.380342   -2.335019   2.062551 O.3        1 UNL1     -0.3076
     7 O         -3.267945   -0.913646   2.429187 O.3        1 UNL1     -0.4605
     8 C         -3.807491   -1.182358   3.674263 C.ar        1 UNL1     0.1310
     9 C         -4.667345   -2.244863   3.972648 C.ar        1 UNL1     0.0226
     10 C         -5.148445   -2.443518   5.272256 C.ar        1 UNL1     0.1343
     11 C         -4.761988   -1.597574   6.310943 C.ar        1 UNL1     0.1007
     12 C         -3.936492   -0.508977   6.01718 C.ar        1 UNL1     0.1389
     13 C         -3.455   -0.307903   4.70983 C.ar        1 UNL1     0.0229
     14 C         -5.172945   -1.81033   7.718069 C.2        1 UNL1     0.1740
     15 C         -4.488463   -0.942265   8.73271 C.3        1 UNL1     0.0520
     16 C         -4.359597   0.461421   8.157369 C.3        1 UNL1     0.1322
     17 O         -3.581597   0.447274   6.940165 O.3        1 UNL1     -0.4828
     18 C         -5.691394   1.20814   8.05035 C.ar        1 UNL1     -0.0067
     19 C         -5.693025   2.575332   7.705388 C.ar        1 UNL1     -0.0516
     20 C         -6.889634   3.299525   7.645118 C.ar        1 UNL1     -0.0198
     21 C         -8.087781   2.671234   7.934116 C.ar        1 UNL1     0.1169
     22 C         -8.121843   1.317918   8.244303 C.ar        1 UNL1     -0.0198
     23 C         -6.927247   0.589079   8.286624 C.ar        1 UNL1     -0.0516
     24 O         -9.228863   3.417765   7.902124 O.3        1 UNL1     -0.5068
     25 O         -5.959312   -2.686634   8.067646 O.2        1 UNL1     -0.2917
     26 O         -5.984774   -3.497918   5.496713 O.3        1 UNL1     -0.5058
     27 O         -0.256664   -0.325144   2.525537 O.3        1 UNL1     -0.3648
     28 O         0.196547   -1.927529   -0.675891 O.3        1 UNL1     -0.3841
     29 O         -2.442683   0.462064   -0.257372 O.3        1 UNL1     -0.3863
     30 O         -2.568198   -3.207042   -0.40577 O.3        1 UNL1     -0.3829
     31 H         0.539901   -1.965112   1.716849 H        1 UNL1     0.0937
     32 H         0.0   0.0   0.0 H        1 UNL1     0.0671
     33 H         -1.899169   -1.045645   -1.488284 H        1 UNL1     0.0649
     34 H         -3.909285   -1.691282   -0.065335 H        1 UNL1     0.0683
     35 H         -3.324522   -2.932786   1.967143 H        1 UNL1     0.1085
     36 H         -4.960091   -2.969832   3.22109 H        1 UNL1     0.0691
     37 H         -2.81456   0.547764   4.50694 H        1 UNL1     0.0691
     38 H         -3.504197   -1.379197   8.932304 H        1 UNL1     0.0385
     39 H         -5.064366   -0.956635   9.664325 H        1 UNL1     0.0385
     40 H         -3.754431   1.046278   8.863227 H        1 UNL1     0.0789
     41 H         -4.764836   3.093671   7.483033 H        1 UNL1     0.0623
     42 H         -6.876592   4.356176   7.389519 H        1 UNL1     0.0654
     43 H         -9.056121   0.812428   8.457643 H        1 UNL1     0.0654
     44 H         -6.992107   -0.46884   8.522089 H        1 UNL1     0.0623
     45 H         -9.180187   4.082759   8.607907 H        1 UNL1     0.2921
     46 H         -5.623686   -4.051793   6.206818 H        1 UNL1     0.2922
     47 H         0.497523   0.2254   2.272628 H        1 UNL1     0.2126
     48 H         1.149857   -1.790252   -0.514377 H        1 UNL1     0.2101
     49 H         -2.115411   1.021982   -0.979298 H        1 UNL1     0.2100
     50 H         -2.819738   -3.167847   -1.351764 H        1 UNL1     0.2102
@<TRIPOS>BOND
     1     1     2    1
     2     1     6    1
     3     2     3    1
     4     3     4    1
     5     3    29    1
     6     3    33    1
     7     4     5    1
     8     5     6    1
     9     5     7    1
    10     5    35    1
    11     7     8    1
    12     8     9   ar
    13     8    13   ar
    14     9    10   ar
    15     9    36    1
    16    10    11   ar
    17    10    26    1
    18    11    12   ar
    19    11    14    1
    20    12    13   ar
    21    12    17    1
    22    13    37    1
    23    14    15    1
    24    14    25    2
    25    15    16    1
    26    15    38    1
    27    15    39    1
    28    16    17    1
    29    16    18    1
    30    16    40    1
    31    18    19   ar
    32    18    23   ar
    33    19    20   ar
    34    19    41    1
    35    20    21   ar
    36    20    42    1
    37    21    22   ar
    38    21    24    1
    39    22    23   ar
    40    22    43    1
    41    23    44    1
    42    24    45    1
    43    26    46    1
    44    27    47    1
    45    28    48    1
    46    29    49    1
    47    30    50    1
    48     1    31    1
    49     1    27    1
    50     2    32    1
    51     2    28    1
    52     4    34    1
    53     4    30    1
