@<TRIPOS>MOLECULE
*****
 50 53 0 0 0
SMALL
GASTEIGER

@<TRIPOS>ATOM
     1 C         1.049175   1.105249   -1.564756 C.3        1 UNL1     0.1889
     2 C         -0.008642   0.070813   -1.094748 C.3        1 UNL1     0.1342
     3 C         0.16152   -1.335636   -1.68923 C.3        1 UNL1     0.1174
     4 C         0.683509   -1.312657   -3.128021 C.3        1 UNL1     0.1456
     5 C         1.876314   -0.355989   -3.307927 C.3        1 UNL1     0.2326
     6 O         1.509637   0.960121   -2.900162 O.3        1 UNL1     -0.3076
     7 O         3.086156   -0.824861   -2.685221 O.3        1 UNL1     -0.4605
     8 C         4.269176   -0.400374   -3.262977 C.ar        1 UNL1     0.1310
     9 C         4.57816   0.922143   -3.598799 C.ar        1 UNL1     0.0226
     10 C         5.813954   1.254949   -4.166212 C.ar        1 UNL1     0.1343
     11 C         6.780885   0.275722   -4.389816 C.ar        1 UNL1     0.1007
     12 C         6.468434   -1.054379   -4.096575 C.ar        1 UNL1     0.1389
     13 C         5.224782   -1.389127   -3.528503 C.ar        1 UNL1     0.0229
     14 C         8.133722   0.583479   -4.908727 C.2        1 UNL1     0.1740
     15 C         9.115171   -0.551095   -4.876318 C.3        1 UNL1     0.0520
     16 C         8.390688   -1.826627   -5.283871 C.3        1 UNL1     0.1322
     17 O         7.303452   -2.111197   -4.376122 O.3        1 UNL1     -0.4828
     18 C         8.008518   -1.871682   -6.765303 C.ar        1 UNL1     -0.0067
     19 C         7.774658   -0.665518   -7.457179 C.ar        1 UNL1     -0.0516
     20 C         7.377459   -0.672844   -8.799618 C.ar        1 UNL1     -0.0198
     21 C         7.203909   -1.877227   -9.457774 C.ar        1 UNL1     0.1169
     22 C         7.458905   -3.080606   -8.813029 C.ar        1 UNL1     -0.0198
     23 C         7.873959   -3.073032   -7.475969 C.ar        1 UNL1     -0.0516
     24 O         6.779686   -1.845961   -10.753712 O.3        1 UNL1     -0.5068
     25 O         8.479625   1.704568   -5.27204 O.2        1 UNL1     -0.2917
     26 O         6.052516   2.563133   -4.471707 O.3        1 UNL1     -0.5058
     27 O         2.125213   1.26696   -0.654383 O.3        1 UNL1     -0.3648
     28 O         -1.312371   0.544158   -1.480676 O.3        1 UNL1     -0.3841
     29 O         0.950439   -2.158379   -0.827352 O.3        1 UNL1     -0.3863
     30 O         -0.381054   -0.898366   -4.011626 O.3        1 UNL1     -0.3829
     31 H         0.551532   2.081159   -1.570132 H        1 UNL1     0.0937
     32 H         0.0   -0.0   0.0 H        1 UNL1     0.0671
     33 H         -0.829558   -1.8096   -1.718252 H        1 UNL1     0.0649
     34 H         0.979946   -2.32192   -3.434473 H        1 UNL1     0.0683
     35 H         2.027354   -0.322888   -4.394191 H        1 UNL1     0.1085
     36 H         3.890948   1.736806   -3.398339 H        1 UNL1     0.0691
     37 H         5.005556   -2.432141   -3.310432 H        1 UNL1     0.0691
     38 H         9.501517   -0.625693   -3.854213 H        1 UNL1     0.0385
     39 H         9.953174   -0.31993   -5.54272 H        1 UNL1     0.0385
     40 H         9.09357   -2.658301   -5.139669 H        1 UNL1     0.0789
     41 H         7.895087   0.292734   -6.960288 H        1 UNL1     0.0623
     42 H         7.188678   0.263575   -9.318745 H        1 UNL1     0.0654
     43 H         7.340687   -4.029006   -9.323392 H        1 UNL1     0.0654
     44 H         8.074465   -4.031331   -7.006602 H        1 UNL1     0.0623
     45 H         6.353092   -2.694065   -10.957319 H        1 UNL1     0.2921
     46 H         5.993618   2.686986   -5.432229 H        1 UNL1     0.2922
     47 H         1.861817   1.843698   0.076271 H        1 UNL1     0.2126
     48 H         -1.959431   -0.089674   -1.11557 H        1 UNL1     0.2101
     49 H         0.579192   -3.054466   -0.795755 H        1 UNL1     0.2100
     50 H         -1.05536   -1.608887   -4.025156 H        1 UNL1     0.2102
@<TRIPOS>BOND
     1     1     2    1
     2     1     6    1
     3     2     3    1
     4     3     4    1
     5     3    29    1
     6     3    33    1
     7     4     5    1
     8     5     6    1
     9     5     7    1
    10     5    35    1
    11     7     8    1
    12     8     9   ar
    13     8    13   ar
    14     9    10   ar
    15     9    36    1
    16    10    11   ar
    17    10    26    1
    18    11    12   ar
    19    11    14    1
    20    12    13   ar
    21    12    17    1
    22    13    37    1
    23    14    15    1
    24    14    25    2
    25    15    16    1
    26    15    38    1
    27    15    39    1
    28    16    17    1
    29    16    18    1
    30    16    40    1
    31    18    19   ar
    32    18    23   ar
    33    19    20   ar
    34    19    41    1
    35    20    21   ar
    36    20    42    1
    37    21    22   ar
    38    21    24    1
    39    22    23   ar
    40    22    43    1
    41    23    44    1
    42    24    45    1
    43    26    46    1
    44    27    47    1
    45    28    48    1
    46    29    49    1
    47    30    50    1
    48     1    31    1
    49     1    27    1
    50     2    32    1
    51     2    28    1
    52     4    34    1
    53     4    30    1
