@<TRIPOS>MOLECULE
*****
 50 53 0 0 0
SMALL
GASTEIGER

@<TRIPOS>ATOM
     1 C         -0.330976   -1.327505   1.702642 C.3        1 UNL1     0.1889
     2 C         -0.461997   -0.975479   0.196371 C.3        1 UNL1     0.1342
     3 C         -1.90298   -0.963837   -0.33645 C.3        1 UNL1     0.1174
     4 C         -2.788665   -2.023094   0.324347 C.3        1 UNL1     0.1456
     5 C         -2.636628   -2.047506   1.856226 C.3        1 UNL1     0.2326
     6 O         -1.271547   -2.264819   2.205796 O.3        1 UNL1     -0.3076
     7 O         -3.211854   -0.900329   2.507702 O.3        1 UNL1     -0.4605
     8 C         -3.72095   -1.115238   3.775836 C.ar        1 UNL1     0.1310
     9 C         -4.533739   -2.190277   4.151291 C.ar        1 UNL1     0.0226
     10 C         -4.986335   -2.329841   5.468705 C.ar        1 UNL1     0.1343
     11 C         -4.617161   -1.409713   6.448969 C.ar        1 UNL1     0.1007
     12 C         -3.839651   -0.309686   6.077214 C.ar        1 UNL1     0.1389
     13 C         -3.386878   -0.168153   4.751923 C.ar        1 UNL1     0.0229
     14 C         -4.997446   -1.554294   7.87327 C.2        1 UNL1     0.1740
     15 C         -4.331755   -0.602139   8.822904 C.3        1 UNL1     0.0520
     16 C         -4.267   0.768901   8.164106 C.3        1 UNL1     0.1322
     17 O         -3.50814   0.712415   6.936095 O.3        1 UNL1     -0.4828
     18 C         -5.628547   1.456544   8.037376 C.ar        1 UNL1     -0.0067
     19 C         -6.009428   2.015902   6.800338 C.ar        1 UNL1     -0.0516
     20 C         -7.226962   2.693115   6.66266 C.ar        1 UNL1     -0.0198
     21 C         -8.067177   2.823855   7.753886 C.ar        1 UNL1     0.1169
     22 C         -7.735048   2.254921   8.976524 C.ar        1 UNL1     -0.0198
     23 C         -6.526003   1.56172   9.109712 C.ar        1 UNL1     -0.0516
     24 O         -9.22721   3.522691   7.591551 O.3        1 UNL1     -0.5068
     25 O         -5.743311   -2.437755   8.287598 O.2        1 UNL1     -0.2917
     26 O         -5.777091   -3.400274   5.769475 O.3        1 UNL1     -0.5058
     27 O         -0.225902   -0.188766   2.542296 O.3        1 UNL1     -0.3648
     28 O         0.268721   -1.954045   -0.56597 O.3        1 UNL1     -0.3841
     29 O         -2.460928   0.3496   -0.260876 O.3        1 UNL1     -0.3863
     30 O         -2.440735   -3.324045   -0.197344 O.3        1 UNL1     -0.3829
     31 H         0.629928   -1.839917   1.821709 H        1 UNL1     0.0937
     32 H         0.0   0.0   0.0 H        1 UNL1     0.0671
     33 H         -1.866163   -1.203973   -1.408223 H        1 UNL1     0.0649
     34 H         -3.838929   -1.845325   0.067939 H        1 UNL1     0.0683
     35 H         -3.190901   -2.943422   2.162812 H        1 UNL1     0.1085
     36 H         -4.809543   -2.969143   3.448853 H        1 UNL1     0.0691
     37 H         -2.783711   0.697835   4.487827 H        1 UNL1     0.0691
     38 H         -3.328125   -0.988559   9.030107 H        1 UNL1     0.0385
     39 H         -4.892038   -0.583294   9.763917 H        1 UNL1     0.0385
     40 H         -3.674275   1.417232   8.823548 H        1 UNL1     0.0789
     41 H         -5.36333   1.934786   5.931069 H        1 UNL1     0.0623
     42 H         -7.503975   3.130373   5.706584 H        1 UNL1     0.0654
     43 H         -8.392555   2.338355   9.833631 H        1 UNL1     0.0654
     44 H         -6.303412   1.12082   10.076617 H        1 UNL1     0.0623
     45 H         -9.004201   4.430525   7.329214 H        1 UNL1     0.2921
     46 H         -5.371553   -3.910199   6.488452 H        1 UNL1     0.2922
     47 H         0.516776   0.365116   2.263902 H        1 UNL1     0.2126
     48 H         1.20169   -1.887682   -0.285086 H        1 UNL1     0.2101
     49 H         -2.022474   0.931782   -0.901669 H        1 UNL1     0.2100
     50 H         -2.674243   -3.339727   -1.148628 H        1 UNL1     0.2102
@<TRIPOS>BOND
     1     1     2    1
     2     1     6    1
     3     2     3    1
     4     3     4    1
     5     3    29    1
     6     3    33    1
     7     4     5    1
     8     5     6    1
     9     5     7    1
    10     5    35    1
    11     7     8    1
    12     8     9   ar
    13     8    13   ar
    14     9    10   ar
    15     9    36    1
    16    10    11   ar
    17    10    26    1
    18    11    12   ar
    19    11    14    1
    20    12    13   ar
    21    12    17    1
    22    13    37    1
    23    14    15    1
    24    14    25    2
    25    15    16    1
    26    15    38    1
    27    15    39    1
    28    16    17    1
    29    16    18    1
    30    16    40    1
    31    18    19   ar
    32    18    23   ar
    33    19    20   ar
    34    19    41    1
    35    20    21   ar
    36    20    42    1
    37    21    22   ar
    38    21    24    1
    39    22    23   ar
    40    22    43    1
    41    23    44    1
    42    24    45    1
    43    26    46    1
    44    27    47    1
    45    28    48    1
    46    29    49    1
    47    30    50    1
    48     1    31    1
    49     1    27    1
    50     2    32    1
    51     2    28    1
    52     4    34    1
    53     4    30    1
