@<TRIPOS>MOLECULE
*****
 50 53 0 0 0
SMALL
GASTEIGER

@<TRIPOS>ATOM
     1 C         -0.33063   -1.327384   1.702803 C.3        1 UNL1     0.1889
     2 C         -0.461749   -0.975572   0.196491 C.3        1 UNL1     0.1342
     3 C         -1.902739   -0.964358   -0.336322 C.3        1 UNL1     0.1174
     4 C         -2.788152   -2.02376   0.324608 C.3        1 UNL1     0.1456
     5 C         -2.636098   -2.047949   1.856488 C.3        1 UNL1     0.2326
     6 O         -1.270961   -2.264876   2.206076 O.3        1 UNL1     -0.3076
     7 O         -3.211611   -0.90084   2.50783 O.3        1 UNL1     -0.4605
     8 C         -3.720644   -1.115725   3.775993 C.ar        1 UNL1     0.1310
     9 C         -4.536002   -2.189058   4.150757 C.ar        1 UNL1     0.0226
     10 C         -4.988319   -2.328794   5.468249 C.ar        1 UNL1     0.1343
     11 C         -4.616319   -1.410604   6.449261 C.ar        1 UNL1     0.1007
     12 C         -3.836175   -0.312196   6.078239 C.ar        1 UNL1     0.1389
     13 C         -3.38368   -0.170484   4.752872 C.ar        1 UNL1     0.0229
     14 C         -4.996287   -1.555649   7.8736 C.2        1 UNL1     0.1740
     15 C         -4.327704   -0.606159   8.823871 C.3        1 UNL1     0.0520
     16 C         -4.259756   0.765374   8.166425 C.3        1 UNL1     0.1322
     17 O         -3.501635   0.708186   6.93799 O.3        1 UNL1     -0.4828
     18 C         -5.619599   1.456627   8.041047 C.ar        1 UNL1     -0.0067
     19 C         -5.999643   2.018207   6.804758 C.ar        1 UNL1     -0.0516
     20 C         -7.215506   2.698673   6.668352 C.ar        1 UNL1     -0.0198
     21 C         -8.054857   2.830461   7.760116 C.ar        1 UNL1     0.1169
     22 C         -7.723597   2.259445   8.982019 C.ar        1 UNL1     -0.0198
     23 C         -6.516267   1.563018   9.113923 C.ar        1 UNL1     -0.0516
     24 O         -9.213176   3.532427   7.599048 O.3        1 UNL1     -0.5068
     25 O         -5.744211   -2.437615   8.287398 O.2        1 UNL1     -0.2917
     26 O         -5.781668   -3.397503   5.768323 O.3        1 UNL1     -0.5058
     27 O         -0.225838   -0.188518   2.54232 O.3        1 UNL1     -0.3648
     28 O         0.269211   -1.954045   -0.565737 O.3        1 UNL1     -0.3841
     29 O         -2.461018   0.348946   -0.260903 O.3        1 UNL1     -0.3863
     30 O         -2.439896   -3.324686   -0.19693 O.3        1 UNL1     -0.3829
     31 H         0.630404   -1.839539   1.821926 H        1 UNL1     0.0937
     32 H         0.0   0.0   0.0 H        1 UNL1     0.0671
     33 H         -1.865867   -1.204613   -1.408067 H        1 UNL1     0.0649
     34 H         -3.838462   -1.846287   0.068185 H        1 UNL1     0.0683
     35 H         -3.190143   -2.943968   2.163186 H        1 UNL1     0.1085
     36 H         -4.814137   -2.966507   3.447668 H        1 UNL1     0.0691
     37 H         -2.778425   0.694224   4.489358 H        1 UNL1     0.0691
     38 H         -3.324966   -0.995356   9.030198 H        1 UNL1     0.0385
     39 H         -4.887484   -0.586831   9.765174 H        1 UNL1     0.0385
     40 H         -3.665056   1.41152   8.826233 H        1 UNL1     0.0789
     41 H         -5.354174   1.936315   5.935096 H        1 UNL1     0.0623
     42 H         -7.491859   3.137603   5.712852 H        1 UNL1     0.0654
     43 H         -8.380476   2.343696   9.839528 H        1 UNL1     0.0654
     44 H         -6.294339   1.120573   10.080275 H        1 UNL1     0.0623
     45 H         -8.98797   4.439952   7.337518 H        1 UNL1     0.2921
     46 H         -5.37709   -3.909189   6.486589 H        1 UNL1     0.2922
     47 H         0.516698   0.365519   2.263855 H        1 UNL1     0.2126
     48 H         1.202165   -1.887412   -0.284867 H        1 UNL1     0.2101
     49 H         -2.022656   0.931185   -0.901707 H        1 UNL1     0.2100
     50 H         -2.673406   -3.340541   -1.14821 H        1 UNL1     0.2102
@<TRIPOS>BOND
     1     1     2    1
     2     1     6    1
     3     2     3    1
     4     3     4    1
     5     3    29    1
     6     3    33    1
     7     4     5    1
     8     5     6    1
     9     5     7    1
    10     5    35    1
    11     7     8    1
    12     8     9   ar
    13     8    13   ar
    14     9    10   ar
    15     9    36    1
    16    10    11   ar
    17    10    26    1
    18    11    12   ar
    19    11    14    1
    20    12    13   ar
    21    12    17    1
    22    13    37    1
    23    14    15    1
    24    14    25    2
    25    15    16    1
    26    15    38    1
    27    15    39    1
    28    16    17    1
    29    16    18    1
    30    16    40    1
    31    18    19   ar
    32    18    23   ar
    33    19    20   ar
    34    19    41    1
    35    20    21   ar
    36    20    42    1
    37    21    22   ar
    38    21    24    1
    39    22    23   ar
    40    22    43    1
    41    23    44    1
    42    24    45    1
    43    26    46    1
    44    27    47    1
    45    28    48    1
    46    29    49    1
    47    30    50    1
    48     1    31    1
    49     1    27    1
    50     2    32    1
    51     2    28    1
    52     4    34    1
    53     4    30    1
