@<TRIPOS>MOLECULE
*****
 50 53 0 0 0
SMALL
GASTEIGER

@<TRIPOS>ATOM
     1 C         -0.369237   -1.396958   1.637979 C.3        1 UNL1     0.1889
     2 C         -0.486984   -0.971605   0.149641 C.3        1 UNL1     0.1342
     3 C         -1.925666   -0.898592   -0.384521 C.3        1 UNL1     0.1174
     4 C         -2.839657   -1.964883   0.224381 C.3        1 UNL1     0.1456
     5 C         -2.692725   -2.064815   1.753691 C.3        1 UNL1     0.2326
     6 O         -1.334569   -2.33271   2.095033 O.3        1 UNL1     -0.3076
     7 O         -3.240766   -0.935212   2.457231 O.3        1 UNL1     -0.4605
     8 C         -3.769446   -1.198428   3.708127 C.ar        1 UNL1     0.1310
     9 C         -4.600773   -2.277926   4.025742 C.ar        1 UNL1     0.0226
     10 C         -5.072665   -2.468774   5.329888 C.ar        1 UNL1     0.1343
     11 C         -4.704956   -1.597244   6.354128 C.ar        1 UNL1     0.1007
     12 C         -3.908634   -0.492476   6.040852 C.ar        1 UNL1     0.1389
     13 C         -3.436436   -0.29932   4.728925 C.ar        1 UNL1     0.0229
     14 C         -5.10604   -1.798725   7.765755 C.2        1 UNL1     0.1740
     15 C         -4.441049   -0.897802   8.764591 C.3        1 UNL1     0.0520
     16 C         -4.350082   0.499677   8.167317 C.3        1 UNL1     0.1322
     17 O         -3.575665   0.486713   6.947817 O.3        1 UNL1     -0.4828
     18 C         -5.700967   1.21021   8.053401 C.ar        1 UNL1     -0.0067
     19 C         -5.808692   2.369776   7.258407 C.ar        1 UNL1     -0.0516
     20 C         -7.017434   3.070599   7.170368 C.ar        1 UNL1     -0.0198
     21 C         -8.121217   2.627247   7.876717 C.ar        1 UNL1     0.1169
     22 C         -8.055428   1.469829   8.641502 C.ar        1 UNL1     -0.0198
     23 C         -6.85185   0.758459   8.715053 C.ar        1 UNL1     -0.0516
     24 O         -9.270864   3.356829   7.796586 O.3        1 UNL1     -0.5068
     25 O         -5.868539   -2.689427   8.131444 O.2        1 UNL1     -0.2917
     26 O         -5.880906   -3.540709   5.573379 O.3        1 UNL1     -0.5058
     27 O         -0.237954   -0.301795   2.530263 O.3        1 UNL1     -0.3648
     28 O         0.221066   -1.931579   -0.656473 O.3        1 UNL1     -0.3841
     29 O         -2.450577   0.423557   -0.248427 O.3        1 UNL1     -0.3863
     30 O         -2.523089   -3.248369   -0.357115 O.3        1 UNL1     -0.3829
     31 H         0.578109   -1.93852   1.734548 H        1 UNL1     0.0937
     32 H         0.0   0.0   0.0 H        1 UNL1     0.0671
     33 H         -1.8918   -1.089147   -1.466307 H        1 UNL1     0.0649
     34 H         -3.884363   -1.748799   -0.025215 H        1 UNL1     0.0683
     35 H         -3.270271   -2.959796   2.016996 H        1 UNL1     0.1085
     36 H         -4.877044   -3.021696   3.286416 H        1 UNL1     0.0691
     37 H         -2.818839   0.569274   4.510723 H        1 UNL1     0.0691
     38 H         -3.445267   -1.306181   8.967502 H        1 UNL1     0.0385
     39 H         -5.013568   -0.912565   9.698284 H        1 UNL1     0.0385
     40 H         -3.758028   1.110712   8.862031 H        1 UNL1     0.0789
     41 H         -4.954296   2.743364   6.701549 H        1 UNL1     0.0623
     42 H         -7.084602   3.970107   6.563419 H        1 UNL1     0.0654
     43 H         -8.917873   1.105344   9.186707 H        1 UNL1     0.0654
     44 H         -6.839274   -0.147372   9.313514 H        1 UNL1     0.0623
     45 H         -9.112581   4.224255   8.203079 H        1 UNL1     0.2921
     46 H         -5.503539   -4.074096   6.290669 H        1 UNL1     0.2922
     47 H         0.506674   0.256965   2.26725 H        1 UNL1     0.2126
     48 H         1.16749   -1.840072   -0.433671 H        1 UNL1     0.2101
     49 H         -2.001869   1.022034   -0.866715 H        1 UNL1     0.2100
     50 H         -2.780383   -3.222984   -1.302032 H        1 UNL1     0.2102
@<TRIPOS>BOND
     1     1     2    1
     2     1     6    1
     3     2     3    1
     4     3     4    1
     5     3    29    1
     6     3    33    1
     7     4     5    1
     8     5     6    1
     9     5     7    1
    10     5    35    1
    11     7     8    1
    12     8     9   ar
    13     8    13   ar
    14     9    10   ar
    15     9    36    1
    16    10    11   ar
    17    10    26    1
    18    11    12   ar
    19    11    14    1
    20    12    13   ar
    21    12    17    1
    22    13    37    1
    23    14    15    1
    24    14    25    2
    25    15    16    1
    26    15    38    1
    27    15    39    1
    28    16    17    1
    29    16    18    1
    30    16    40    1
    31    18    19   ar
    32    18    23   ar
    33    19    20   ar
    34    19    41    1
    35    20    21   ar
    36    20    42    1
    37    21    22   ar
    38    21    24    1
    39    22    23   ar
    40    22    43    1
    41    23    44    1
    42    24    45    1
    43    26    46    1
    44    27    47    1
    45    28    48    1
    46    29    49    1
    47    30    50    1
    48     1    31    1
    49     1    27    1
    50     2    32    1
    51     2    28    1
    52     4    34    1
    53     4    30    1
