@<TRIPOS>MOLECULE
*****
 50 53 0 0 0
SMALL
GASTEIGER

@<TRIPOS>ATOM
     1 C         -1.825095   -0.839783   -0.857086 C.3        1 UNL1     0.1889
     2 C         -1.084652   0.119238   0.113462 C.3        1 UNL1     0.1342
     3 C         -1.455726   -0.054761   1.594169 C.3        1 UNL1     0.1174
     4 C         -2.925397   -0.431427   1.797412 C.3        1 UNL1     0.1456
     5 C         -3.382604   -1.55662   0.851226 C.3        1 UNL1     0.2326
     6 O         -3.159452   -1.172985   -0.503726 O.3        1 UNL1     -0.3076
     7 O         -2.821211   -2.841584   1.175304 O.3        1 UNL1     -0.4605
     8 C         -1.610428   -2.822925   1.844022 C.ar        1 UNL1     0.1310
     9 C         -1.371042   -2.191378   3.069234 C.ar        1 UNL1     0.0226
     10 C         -0.110706   -2.243843   3.676443 C.ar        1 UNL1     0.1343
     11 C         0.935458   -2.94993   3.084138 C.ar        1 UNL1     0.1007
     12 C         0.719917   -3.550129   1.840721 C.ar        1 UNL1     0.1389
     13 C         -0.546701   -3.495001   1.229108 C.ar        1 UNL1     0.0229
     14 C         2.262905   -3.108378   3.722051 C.2        1 UNL1     0.1740
     15 C         3.191763   -4.080178   3.055437 C.3        1 UNL1     0.0520
     16 C         3.06139   -3.91441   1.54763 C.3        1 UNL1     0.1322
     17 O         1.707556   -4.178138   1.11792 O.3        1 UNL1     -0.4828
     18 C         3.651186   -2.604901   1.018433 C.ar        1 UNL1     -0.0067
     19 C         4.089852   -1.624029   1.931492 C.ar        1 UNL1     -0.0516
     20 C         4.59031   -0.396405   1.481552 C.ar        1 UNL1     -0.0198
     21 C         4.650266   -0.135232   0.124341 C.ar        1 UNL1     0.1169
     22 C         4.257007   -1.094126   -0.800163 C.ar        1 UNL1     -0.0198
     23 C         3.773749   -2.328923   -0.35095 C.ar        1 UNL1     -0.0516
     24 O         5.108068   1.085842   -0.275404 O.3        1 UNL1     -0.5068
     25 O         2.578882   -2.554913   4.771966 O.2        1 UNL1     -0.2917
     26 O         0.057341   -1.605914   4.870759 O.3        1 UNL1     -0.5058
     27 O         -1.070605   -1.991633   -1.198806 O.3        1 UNL1     -0.3648
     28 O         -1.404703   1.474498   -0.251973 O.3        1 UNL1     -0.3841
     29 O         -0.557977   -0.960638   2.238812 O.3        1 UNL1     -0.3863
     30 O         -3.748966   0.732266   1.566669 O.3        1 UNL1     -0.3829
     31 H         -1.937991   -0.300676   -1.804026 H        1 UNL1     0.0937
     32 H         0.0   0.0   0.0 H        1 UNL1     0.0671
     33 H         -1.303407   0.91208   2.093907 H        1 UNL1     0.0649
     34 H         -3.091986   -0.741394   2.834991 H        1 UNL1     0.0683
     35 H         -4.469417   -1.598658   0.995961 H        1 UNL1     0.1085
     36 H         -2.157688   -1.673886   3.607296 H        1 UNL1     0.0691
     37 H         -0.688327   -3.969498   0.260456 H        1 UNL1     0.0691
     38 H         2.897771   -5.087568   3.368904 H        1 UNL1     0.0385
     39 H         4.213583   -3.897668   3.405228 H        1 UNL1     0.0385
     40 H         3.657382   -4.710786   1.081691 H        1 UNL1     0.0789
     41 H         4.044567   -1.801222   3.0021 H        1 UNL1     0.0623
     42 H         4.914362   0.356456   2.195836 H        1 UNL1     0.0654
     43 H         4.313811   -0.905783   -1.865626 H        1 UNL1     0.0654
     44 H         3.485214   -3.058723   -1.101274 H        1 UNL1     0.0623
     45 H         4.596864   1.770863   0.185175 H        1 UNL1     0.2921
     46 H         -0.181598   -2.206215   5.59461 H        1 UNL1     0.2922
     47 H         -0.599339   -2.325563   -0.422752 H        1 UNL1     0.2126
     48 H         -0.55687   1.955265   -0.313413 H        1 UNL1     0.2101
     49 H         0.196338   -0.472595   2.605712 H        1 UNL1     0.2100
     50 H         -4.684983   0.443185   1.562507 H        1 UNL1     0.2102
@<TRIPOS>BOND
     1     1     2    1
     2     1     6    1
     3     2     3    1
     4     3     4    1
     5     3    29    1
     6     3    33    1
     7     4     5    1
     8     5     6    1
     9     5     7    1
    10     5    35    1
    11     7     8    1
    12     8     9   ar
    13     8    13   ar
    14     9    10   ar
    15     9    36    1
    16    10    11   ar
    17    10    26    1
    18    11    12   ar
    19    11    14    1
    20    12    13   ar
    21    12    17    1
    22    13    37    1
    23    14    15    1
    24    14    25    2
    25    15    16    1
    26    15    38    1
    27    15    39    1
    28    16    17    1
    29    16    18    1
    30    16    40    1
    31    18    19   ar
    32    18    23   ar
    33    19    20   ar
    34    19    41    1
    35    20    21   ar
    36    20    42    1
    37    21    22   ar
    38    21    24    1
    39    22    23   ar
    40    22    43    1
    41    23    44    1
    42    24    45    1
    43    26    46    1
    44    27    47    1
    45    28    48    1
    46    29    49    1
    47    30    50    1
    48     1    31    1
    49     1    27    1
    50     2    32    1
    51     2    28    1
    52     4    34    1
    53     4    30    1
