@<TRIPOS>MOLECULE
*****
 50 53 0 0 0
SMALL
GASTEIGER

@<TRIPOS>ATOM
     1 C         0.37847   0.181792   2.143482 C.3        1 UNL1     0.1889
     2 C         0.319688   -0.642838   0.82953 C.3        1 UNL1     0.1342
     3 C         -0.593191   -1.877245   0.887462 C.3        1 UNL1     0.1174
     4 C         -0.595503   -2.549685   2.262575 C.3        1 UNL1     0.1456
     5 C         -0.754259   -1.539338   3.413384 C.3        1 UNL1     0.2326
     6 O         0.282271   -0.562442   3.348993 O.3        1 UNL1     -0.3076
     7 O         -2.070708   -0.963165   3.4928 O.3        1 UNL1     -0.4605
     8 C         -2.513763   -0.636126   4.761766 C.ar        1 UNL1     0.1310
     9 C         -2.703459   -1.540714   5.812022 C.ar        1 UNL1     0.0226
     10 C         -3.140427   -1.108159   7.069741 C.ar        1 UNL1     0.1343
     11 C         -3.375696   0.24404   7.31479 C.ar        1 UNL1     0.1007
     12 C         -3.229233   1.151564   6.262302 C.ar        1 UNL1     0.1389
     13 C         -2.792398   0.716033   4.997028 C.ar        1 UNL1     0.0229
     14 C         -3.757659   0.766443   8.647214 C.2        1 UNL1     0.1740
     15 C         -3.75167   2.260615   8.784915 C.3        1 UNL1     0.0520
     16 C         -4.328151   2.864112   7.511566 C.3        1 UNL1     0.1322
     17 O         -3.537342   2.48847   6.362399 O.3        1 UNL1     -0.4828
     18 C         -5.832836   2.636262   7.348066 C.ar        1 UNL1     -0.0067
     19 C         -6.525818   3.301241   6.315694 C.ar        1 UNL1     -0.0516
     20 C         -7.909941   3.152099   6.16763 C.ar        1 UNL1     -0.0198
     21 C         -8.612031   2.348432   7.04798 C.ar        1 UNL1     0.1169
     22 C         -7.952725   1.654256   8.054099 C.ar        1 UNL1     -0.0198
     23 C         -6.565917   1.788679   8.19103 C.ar        1 UNL1     -0.0516
     24 O         -9.96442   2.257244   6.895899 O.3        1 UNL1     -0.5068
     25 O         -3.989996   0.046267   9.614608 O.2        1 UNL1     -0.2917
     26 O         -3.306796   -2.041218   8.051223 O.3        1 UNL1     -0.5058
     27 O         -0.493313   1.30106   2.14798 O.3        1 UNL1     -0.3648
     28 O         1.647646   -1.10616   0.522013 O.3        1 UNL1     -0.3841
     29 O         -1.907219   -1.558266   0.425169 O.3        1 UNL1     -0.3863
     30 O         0.645694   -3.265936   2.441752 O.3        1 UNL1     -0.3829
     31 H         1.380993   0.620649   2.192802 H        1 UNL1     0.0937
     32 H         0.0   0.0   0.0 H        1 UNL1     0.0671
     33 H         -0.2039   -2.616042   0.173074 H        1 UNL1     0.0649
     34 H         -1.402634   -3.28865   2.316163 H        1 UNL1     0.0683
     35 H         -0.574273   -2.136317   4.316213 H        1 UNL1     0.1085
     36 H         -2.484265   -2.597043   5.701369 H        1 UNL1     0.0691
     37 H         -2.687331   1.442347   4.193958 H        1 UNL1     0.0691
     38 H         -2.713526   2.575099   8.936194 H        1 UNL1     0.0385
     39 H         -4.327106   2.541479   9.673603 H        1 UNL1     0.0385
     40 H         -4.205466   3.953174   7.585142 H        1 UNL1     0.0789
     41 H         -5.998916   3.944933   5.61735 H        1 UNL1     0.0623
     42 H         -8.434678   3.679528   5.374862 H        1 UNL1     0.0654
     43 H         -8.49063   1.010423   8.7397 H        1 UNL1     0.0654
     44 H         -6.081884   1.223425   8.981628 H        1 UNL1     0.0623
     45 H         -10.267537   3.022989   6.381631 H        1 UNL1     0.2921
     46 H         -2.924483   -1.711066   8.879624 H        1 UNL1     0.2922
     47 H         -1.365418   1.044851   2.479111 H        1 UNL1     0.2126
     48 H         1.558934   -2.032136   0.224639 H        1 UNL1     0.2101
     49 H         -2.122606   -2.095764   -0.353611 H        1 UNL1     0.2100
     50 H         1.165893   -2.800467   3.129098 H        1 UNL1     0.2102
@<TRIPOS>BOND
     1     1     2    1
     2     1     6    1
     3     2     3    1
     4     3     4    1
     5     3    29    1
     6     3    33    1
     7     4     5    1
     8     5     6    1
     9     5     7    1
    10     5    35    1
    11     7     8    1
    12     8     9   ar
    13     8    13   ar
    14     9    10   ar
    15     9    36    1
    16    10    11   ar
    17    10    26    1
    18    11    12   ar
    19    11    14    1
    20    12    13   ar
    21    12    17    1
    22    13    37    1
    23    14    15    1
    24    14    25    2
    25    15    16    1
    26    15    38    1
    27    15    39    1
    28    16    17    1
    29    16    18    1
    30    16    40    1
    31    18    19   ar
    32    18    23   ar
    33    19    20   ar
    34    19    41    1
    35    20    21   ar
    36    20    42    1
    37    21    22   ar
    38    21    24    1
    39    22    23   ar
    40    22    43    1
    41    23    44    1
    42    24    45    1
    43    26    46    1
    44    27    47    1
    45    28    48    1
    46    29    49    1
    47    30    50    1
    48     1    31    1
    49     1    27    1
    50     2    32    1
    51     2    28    1
    52     4    34    1
    53     4    30    1
