@<TRIPOS>MOLECULE
*****
 50 53 0 0 0
SMALL
GASTEIGER

@<TRIPOS>ATOM
     1 C         0.324123   -0.6243   2.067849 C.3        1 UNL1     0.1889
     2 C         0.019001   -0.932697   0.577301 C.3        1 UNL1     0.1342
     3 C         -1.291081   -1.698154   0.336 C.3        1 UNL1     0.1174
     4 C         -1.605472   -2.701886   1.448114 C.3        1 UNL1     0.1456
     5 C         -1.425165   -2.100773   2.854 C.3        1 UNL1     0.2326
     6 O         -0.096626   -1.605486   3.004139 O.3        1 UNL1     -0.3076
     7 O         -2.432471   -1.131581   3.196526 O.3        1 UNL1     -0.4605
     8 C         -2.767776   -1.053366   4.536295 C.ar        1 UNL1     0.1310
     9 C         -3.019657   -2.145443   5.373686 C.ar        1 UNL1     0.0226
     10 C         -3.33604   -1.963298   6.725213 C.ar        1 UNL1     0.1343
     11 C         -3.384899   -0.684412   7.278298 C.ar        1 UNL1     0.1007
     12 C         -3.175581   0.415906   6.442673 C.ar        1 UNL1     0.1389
     13 C         -2.860077   0.232615   5.083154 C.ar        1 UNL1     0.0229
     14 C         -3.631699   -0.438558   8.71802 C.2        1 UNL1     0.1740
     15 C         -3.428709   0.974734   9.179486 C.3        1 UNL1     0.0520
     16 C         -3.985087   1.912974   8.117363 C.3        1 UNL1     0.1322
     17 O         -3.305622   1.721173   6.856962 O.3        1 UNL1     -0.4828
     18 C         -5.512711   1.900028   8.022913 C.ar        1 UNL1     -0.0067
     19 C         -6.127448   1.769424   6.760671 C.ar        1 UNL1     -0.0516
     20 C         -7.521304   1.801437   6.633769 C.ar        1 UNL1     -0.0198
     21 C         -8.309445   1.970518   7.758079 C.ar        1 UNL1     0.1169
     22 C         -7.734659   2.068308   9.018594 C.ar        1 UNL1     -0.0198
     23 C         -6.341537   2.017814   9.147888 C.ar        1 UNL1     -0.0516
     24 O         -9.661628   2.034822   7.591146 O.3        1 UNL1     -0.5068
     25 O         -3.906377   -1.328612   9.518546 O.2        1 UNL1     -0.2917
     26 O         -3.571797   -3.069932   7.487687 O.3        1 UNL1     -0.5058
     27 O         -0.064754   0.680621   2.466271 O.3        1 UNL1     -0.3648
     28 O         1.089253   -1.738352   0.049866 O.3        1 UNL1     -0.3841
     29 O         -2.368513   -0.793171   0.086442 O.3        1 UNL1     -0.3863
     30 O         -0.731689   -3.844163   1.316224 O.3        1 UNL1     -0.3829
     31 H         1.414807   -0.623704   2.170263 H        1 UNL1     0.0937
     32 H         -0.0   0.0   0.0 H        1 UNL1     0.0671
     33 H         -1.175463   -2.276871   -0.591059 H        1 UNL1     0.0649
     34 H         -2.632006   -3.069489   1.340892 H        1 UNL1     0.0683
     35 H         -1.521639   -2.963557   3.524951 H        1 UNL1     0.1085
     36 H         -2.942474   -3.166858   5.017491 H        1 UNL1     0.0691
     37 H         -2.702676   1.105683   4.453495 H        1 UNL1     0.0691
     38 H         -2.352826   1.127057   9.316598 H        1 UNL1     0.0385
     39 H         -3.919605   1.109655   10.14933 H        1 UNL1     0.0385
     40 H         -3.721229   2.935778   8.418645 H        1 UNL1     0.0789
     41 H         -5.530565   1.64481   5.861865 H        1 UNL1     0.0623
     42 H         -7.982977   1.711612   5.653565 H        1 UNL1     0.0654
     43 H         -8.343084   2.185891   9.907359 H        1 UNL1     0.0654
     44 H         -5.926945   2.086695   10.148994 H        1 UNL1     0.0623
     45 H         -9.864348   2.792877   7.01933 H        1 UNL1     0.2921
     46 H         -2.968092   -3.074077   8.247249 H        1 UNL1     0.2922
     47 H         0.352024   1.342611   1.897127 H        1 UNL1     0.2126
     48 H         1.903551   -1.204193   0.12284 H        1 UNL1     0.2101
     49 H         -2.245187   -0.362649   -0.774508 H        1 UNL1     0.2100
     50 H         -0.954933   -4.299344   0.477961 H        1 UNL1     0.2102
@<TRIPOS>BOND
     1     1     2    1
     2     1     6    1
     3     2     3    1
     4     3     4    1
     5     3    29    1
     6     3    33    1
     7     4     5    1
     8     5     6    1
     9     5     7    1
    10     5    35    1
    11     7     8    1
    12     8     9   ar
    13     8    13   ar
    14     9    10   ar
    15     9    36    1
    16    10    11   ar
    17    10    26    1
    18    11    12   ar
    19    11    14    1
    20    12    13   ar
    21    12    17    1
    22    13    37    1
    23    14    15    1
    24    14    25    2
    25    15    16    1
    26    15    38    1
    27    15    39    1
    28    16    17    1
    29    16    18    1
    30    16    40    1
    31    18    19   ar
    32    18    23   ar
    33    19    20   ar
    34    19    41    1
    35    20    21   ar
    36    20    42    1
    37    21    22   ar
    38    21    24    1
    39    22    23   ar
    40    22    43    1
    41    23    44    1
    42    24    45    1
    43    26    46    1
    44    27    47    1
    45    28    48    1
    46    29    49    1
    47    30    50    1
    48     1    31    1
    49     1    27    1
    50     2    32    1
    51     2    28    1
    52     4    34    1
    53     4    30    1
