@<TRIPOS>MOLECULE
*****
 50 53 0 0 0
SMALL
GASTEIGER

@<TRIPOS>ATOM
     1 C         -0.237988   -0.141971   -2.166566 C.3        1 UNL1     0.1889
     2 C         -0.46097   0.578909   -0.809897 C.3        1 UNL1     0.1342
     3 C         -1.93294   0.845976   -0.459978 C.3        1 UNL1     0.1174
     4 C         -2.787926   1.159845   -1.690264 C.3        1 UNL1     0.1456
     5 C         -2.538102   0.177249   -2.848909 C.3        1 UNL1     0.2326
     6 O         -1.156299   0.181311   -3.200293 O.3        1 UNL1     -0.3076
     7 O         -3.055435   -1.14297   -2.602519 O.3        1 UNL1     -0.4605
     8 C         -4.095217   -1.226828   -1.694032 C.ar        1 UNL1     0.1310
     9 C         -4.001119   -0.946531   -0.326597 C.ar        1 UNL1     0.0226
     10 C         -5.118694   -1.044521   0.510855 C.ar        1 UNL1     0.1343
     11 C         -6.364043   -1.402501   -0.00373 C.ar        1 UNL1     0.1007
     12 C         -6.461653   -1.724584   -1.360019 C.ar        1 UNL1     0.1389
     13 C         -5.337218   -1.62854   -2.201359 C.ar        1 UNL1     0.0229
     14 C         -7.594928   -1.440186   0.819468 C.2        1 UNL1     0.1740
     15 C         -8.876997   -1.625905   0.062263 C.3        1 UNL1     0.0520
     16 C         -8.640807   -2.647181   -1.041896 C.3        1 UNL1     0.1322
     17 O         -7.613024   -2.19251   -1.949644 O.3        1 UNL1     -0.4828
     18 C         -8.446928   -4.076001   -0.52847 C.ar        1 UNL1     -0.0067
     19 C         -9.577414   -4.862384   -0.225458 C.ar        1 UNL1     -0.0516
     20 C         -9.435186   -6.155953   0.290695 C.ar        1 UNL1     -0.0198
     21 C         -8.170789   -6.670662   0.514748 C.ar        1 UNL1     0.1169
     22 C         -7.038246   -5.933162   0.194939 C.ar        1 UNL1     -0.0198
     23 C         -7.18013   -4.646556   -0.338512 C.ar        1 UNL1     -0.0516
     24 O         -8.071732   -7.919627   1.053892 O.3        1 UNL1     -0.5068
     25 O         -7.602401   -1.253801   2.033424 O.2        1 UNL1     -0.2917
     26 O         -4.959645   -0.758648   1.835455 O.3        1 UNL1     -0.5058
     27 O         -0.0645   -1.544334   -2.039805 O.3        1 UNL1     -0.3648
     28 O         0.206572   1.853665   -0.855616 O.3        1 UNL1     -0.3841
     29 O         -2.467891   -0.218887   0.328709 O.3        1 UNL1     -0.3863
     30 O         -2.491046   2.498189   -2.144563 O.3        1 UNL1     -0.3829
     31 H         0.721891   0.214364   -2.5561 H        1 UNL1     0.0937
     32 H         0.0   0.0   0.0 H        1 UNL1     0.0671
     33 H         -1.968165   1.734003   0.186464 H        1 UNL1     0.0649
     34 H         -3.850114   1.140522   -1.422338 H        1 UNL1     0.0683
     35 H         -3.083041   0.619036   -3.692558 H        1 UNL1     0.1085
     36 H         -3.074079   -0.60916   0.123846 H        1 UNL1     0.0691
     37 H         -5.439287   -1.885863   -3.253433 H        1 UNL1     0.0691
     38 H         -9.159954   -0.652994   -0.353555 H        1 UNL1     0.0385
     39 H         -9.662007   -1.942049   0.75767 H        1 UNL1     0.0385
     40 H         -9.552635   -2.679389   -1.653494 H        1 UNL1     0.0789
     41 H         -10.580751   -4.477789   -0.383737 H        1 UNL1     0.0623
     42 H         -10.314696   -6.747967   0.531514 H        1 UNL1     0.0654
     43 H         -6.043339   -6.332301   0.35229 H        1 UNL1     0.0654
     44 H         -6.273784   -4.102687   -0.586683 H        1 UNL1     0.0623
     45 H         -8.162519   -8.570347   0.339023 H        1 UNL1     0.2921
     46 H         -5.515587   0.000689   2.071567 H        1 UNL1     0.2922
     47 H         -0.297582   -1.831076   -1.145763 H        1 UNL1     0.2126
     48 H         1.020261   1.762535   -0.323323 H        1 UNL1     0.2101
     49 H         -3.426742   -0.280936   0.192516 H        1 UNL1     0.2100
     50 H         -3.167506   3.100375   -1.771084 H        1 UNL1     0.2102
@<TRIPOS>BOND
     1     1     2    1
     2     1     6    1
     3     2     3    1
     4     3     4    1
     5     3    29    1
     6     3    33    1
     7     4     5    1
     8     5     6    1
     9     5     7    1
    10     5    35    1
    11     7     8    1
    12     8     9   ar
    13     8    13   ar
    14     9    10   ar
    15     9    36    1
    16    10    11   ar
    17    10    26    1
    18    11    12   ar
    19    11    14    1
    20    12    13   ar
    21    12    17    1
    22    13    37    1
    23    14    15    1
    24    14    25    2
    25    15    16    1
    26    15    38    1
    27    15    39    1
    28    16    17    1
    29    16    18    1
    30    16    40    1
    31    18    19   ar
    32    18    23   ar
    33    19    20   ar
    34    19    41    1
    35    20    21   ar
    36    20    42    1
    37    21    22   ar
    38    21    24    1
    39    22    23   ar
    40    22    43    1
    41    23    44    1
    42    24    45    1
    43    26    46    1
    44    27    47    1
    45    28    48    1
    46    29    49    1
    47    30    50    1
    48     1    31    1
    49     1    27    1
    50     2    32    1
    51     2    28    1
    52     4    34    1
    53     4    30    1
