@<TRIPOS>MOLECULE
*****
 50 53 0 0 0
SMALL
GASTEIGER

@<TRIPOS>ATOM
     1 C         0.708856   0.421216   2.022598 C.3        1 UNL1     0.1889
     2 C         -0.233699   0.69144   0.819059 C.3        1 UNL1     0.1342
     3 C         -0.195465   2.131637   0.285358 C.3        1 UNL1     0.1174
     4 C         0.019003   3.168673   1.390653 C.3        1 UNL1     0.1456
     5 C         1.153095   2.777035   2.355443 C.3        1 UNL1     0.2326
     6 O         0.883724   1.499944   2.92933 O.3        1 UNL1     -0.3076
     7 O         2.463326   2.867954   1.766928 O.3        1 UNL1     -0.4605
     8 C         3.431994   2.045815   2.314008 C.ar        1 UNL1     0.1310
     9 C         4.664521   1.7429   1.725434 C.ar        1 UNL1     0.0226
     10 C         5.588571   0.910703   2.36846 C.ar        1 UNL1     0.1343
     11 C         5.312022   0.379871   3.627658 C.ar        1 UNL1     0.1007
     12 C         4.067777   0.641984   4.207255 C.ar        1 UNL1     0.1389
     13 C         3.13775   1.47664   3.559311 C.ar        1 UNL1     0.0229
     14 C         6.285629   -0.436668   4.388913 C.2        1 UNL1     0.1740
     15 C         5.910976   -0.735583   5.810825 C.3        1 UNL1     0.0520
     16 C         4.420681   -1.042762   5.862003 C.3        1 UNL1     0.1322
     17 O         3.648382   0.084379   5.392773 O.3        1 UNL1     -0.4828
     18 C         4.044897   -2.380505   5.220167 C.ar        1 UNL1     -0.0067
     19 C         4.307182   -3.579556   5.914211 C.ar        1 UNL1     -0.0516
     20 C         4.019569   -4.821772   5.336164 C.ar        1 UNL1     -0.0198
     21 C         3.477573   -4.878434   4.064607 C.ar        1 UNL1     0.1169
     22 C         3.177057   -3.714214   3.369538 C.ar        1 UNL1     -0.0198
     23 C         3.447472   -2.471465   3.95478 C.ar        1 UNL1     -0.0516
     24 O         3.245999   -6.106879   3.518992 O.3        1 UNL1     -0.5068
     25 O         7.371331   -0.790373   3.936554 O.2        1 UNL1     -0.2917
     26 O         6.772077   0.653619   1.740124 O.3        1 UNL1     -0.5058
     27 O         1.950021   -0.156332   1.650125 O.3        1 UNL1     -0.3648
     28 O         -1.587004   0.422757   1.230252 O.3        1 UNL1     -0.3841
     29 O         0.750689   2.253126   -0.778675 O.3        1 UNL1     -0.3863
     30 O         -1.203041   3.315448   2.146136 O.3        1 UNL1     -0.3829
     31 H         0.224813   -0.349693   2.63209 H        1 UNL1     0.0937
     32 H         0.0   0.0   -0.0 H        1 UNL1     0.0671
     33 H         -1.17321   2.347489   -0.16757 H        1 UNL1     0.0649
     34 H         0.24178   4.146001   0.948385 H        1 UNL1     0.0683
     35 H         1.077243   3.513156   3.165536 H        1 UNL1     0.1085
     36 H         4.961989   2.169119   0.773609 H        1 UNL1     0.0691
     37 H         2.175636   1.66426   4.031147 H        1 UNL1     0.0691
     38 H         6.152745   0.148807   6.409933 H        1 UNL1     0.0385
     39 H         6.51871   -1.571357   6.174032 H        1 UNL1     0.0385
     40 H         4.146703   -1.141468   6.921112 H        1 UNL1     0.0789
     41 H         4.740803   -3.562126   6.909861 H        1 UNL1     0.0623
     42 H         4.23744   -5.739588   5.87668 H        1 UNL1     0.0654
     43 H         2.738576   -3.746829   2.379295 H        1 UNL1     0.0654
     44 H         3.190098   -1.5822   3.387495 H        1 UNL1     0.0623
     45 H         2.317951   -6.34339   3.678695 H        1 UNL1     0.2921
     46 H         7.343597   0.133553   2.326901 H        1 UNL1     0.2922
     47 H         1.820395   -1.069859   1.359392 H        1 UNL1     0.2126
     48 H         -2.116023   1.204289   0.979097 H        1 UNL1     0.2101
     49 H         1.652192   2.260151   -0.41946 H        1 UNL1     0.2100
     50 H         -1.878514   3.706293   1.553945 H        1 UNL1     0.2102
@<TRIPOS>BOND
     1     1     2    1
     2     1     6    1
     3     2     3    1
     4     3     4    1
     5     3    29    1
     6     3    33    1
     7     4     5    1
     8     5     6    1
     9     5     7    1
    10     5    35    1
    11     7     8    1
    12     8     9   ar
    13     8    13   ar
    14     9    10   ar
    15     9    36    1
    16    10    11   ar
    17    10    26    1
    18    11    12   ar
    19    11    14    1
    20    12    13   ar
    21    12    17    1
    22    13    37    1
    23    14    15    1
    24    14    25    2
    25    15    16    1
    26    15    38    1
    27    15    39    1
    28    16    17    1
    29    16    18    1
    30    16    40    1
    31    18    19   ar
    32    18    23   ar
    33    19    20   ar
    34    19    41    1
    35    20    21   ar
    36    20    42    1
    37    21    22   ar
    38    21    24    1
    39    22    23   ar
    40    22    43    1
    41    23    44    1
    42    24    45    1
    43    26    46    1
    44    27    47    1
    45    28    48    1
    46    29    49    1
    47    30    50    1
    48     1    31    1
    49     1    27    1
    50     2    32    1
    51     2    28    1
    52     4    34    1
    53     4    30    1
