@<TRIPOS>MOLECULE
*****
 50 53 0 0 0
SMALL
GASTEIGER

@<TRIPOS>ATOM
     1 C         -0.345569   -1.336324   1.692815 C.3        1 UNL1     0.1889
     2 C         -0.469086   -0.973659   0.188436 C.3        1 UNL1     0.1342
     3 C         -1.90812   -0.94903   -0.349189 C.3        1 UNL1     0.1174
     4 C         -2.803032   -2.006681   0.301675 C.3        1 UNL1     0.1456
     5 C         -2.656428   -2.042051   1.833869 C.3        1 UNL1     0.2326
     6 O         -1.29402   -2.27065   2.186649 O.3        1 UNL1     -0.3076
     7 O         -3.226322   -0.895355   2.490854 O.3        1 UNL1     -0.4605
     8 C         -3.7484   -1.116848   3.752561 C.ar        1 UNL1     0.1310
     9 C         -4.576722   -2.185966   4.110567 C.ar        1 UNL1     0.0226
     10 C         -5.04184   -2.333274   5.422767 C.ar        1 UNL1     0.1343
     11 C         -4.670152   -1.427293   6.415181 C.ar        1 UNL1     0.1007
     12 C         -3.876844   -0.332813   6.060836 C.ar        1 UNL1     0.1389
     13 C         -3.411462   -0.18346   4.740781 C.ar        1 UNL1     0.0229
     14 C         -5.063911   -1.581522   7.834801 C.2        1 UNL1     0.1740
     15 C         -4.395109   -0.646685   8.799338 C.3        1 UNL1     0.0520
     16 C         -4.308949   0.729966   8.154848 C.3        1 UNL1     0.1322
     17 O         -3.540621   0.676774   6.93259 O.3        1 UNL1     -0.4828
     18 C         -5.66131   1.434723   8.023856 C.ar        1 UNL1     -0.0067
     19 C         -6.017835   2.026148   6.794499 C.ar        1 UNL1     -0.0516
     20 C         -7.22615   2.719202   6.654449 C.ar        1 UNL1     -0.0198
     21 C         -8.081248   2.833934   7.735871 C.ar        1 UNL1     0.1169
     22 C         -7.77335   2.233782   8.949895 C.ar        1 UNL1     -0.0198
     23 C         -6.573619   1.524938   9.084964 C.ar        1 UNL1     -0.0516
     24 O         -9.231479   3.548556   7.572519 O.3        1 UNL1     -0.5068
     25 O         -5.823412   -2.460254   8.234143 O.2        1 UNL1     -0.2917
     26 O         -5.847457   -3.397305   5.706321 O.3        1 UNL1     -0.5058
     27 O         -0.235883   -0.203785   2.540229 O.3        1 UNL1     -0.3648
     28 O         0.257787   -1.95206   -0.577784 O.3        1 UNL1     -0.3841
     29 O         -2.45766   0.367547   -0.266948 O.3        1 UNL1     -0.3863
     30 O         -2.461887   -3.306486   -0.227304 O.3        1 UNL1     -0.3829
     31 H         0.611523   -1.855839   1.811802 H        1 UNL1     0.0937
     32 H         0.0   0.0   0.0 H        1 UNL1     0.0671
     33 H         -1.869199   -1.182434   -1.422375 H        1 UNL1     0.0649
     34 H         -3.851213   -1.820311   0.042866 H        1 UNL1     0.0683
     35 H         -3.217643   -2.936257   2.132723 H        1 UNL1     0.1085
     36 H         -4.855717   -2.95455   3.398133 H        1 UNL1     0.0691
     37 H         -2.796095   0.677982   4.490315 H        1 UNL1     0.0691
     38 H         -3.397795   -1.046863   9.010878 H        1 UNL1     0.0385
     39 H         -4.962934   -0.63061   9.735872 H        1 UNL1     0.0385
     40 H         -3.714226   1.364745   8.825579 H        1 UNL1     0.0789
     41 H         -5.359641   1.958023   5.933226 H        1 UNL1     0.0623
     42 H         -7.48429   3.181057   5.704678 H        1 UNL1     0.0654
     43 H         -8.442745   2.304623   9.798895 H        1 UNL1     0.0654
     44 H         -6.370091   1.059772   10.044673 H        1 UNL1     0.0623
     45 H         -8.995129   4.461795   7.342628 H        1 UNL1     0.2921
     46 H         -5.454468   -3.918365   6.424281 H        1 UNL1     0.2922
     47 H         0.508859   0.349121   2.265433 H        1 UNL1     0.2126
     48 H         1.193503   -1.880009   -0.307645 H        1 UNL1     0.2101
     49 H         -2.01902   0.948903   -0.908364 H        1 UNL1     0.2100
     50 H         -2.697455   -3.316345   -1.178158 H        1 UNL1     0.2102
@<TRIPOS>BOND
     1     1     2    1
     2     1     6    1
     3     2     3    1
     4     3     4    1
     5     3    29    1
     6     3    33    1
     7     4     5    1
     8     5     6    1
     9     5     7    1
    10     5    35    1
    11     7     8    1
    12     8     9   ar
    13     8    13   ar
    14     9    10   ar
    15     9    36    1
    16    10    11   ar
    17    10    26    1
    18    11    12   ar
    19    11    14    1
    20    12    13   ar
    21    12    17    1
    22    13    37    1
    23    14    15    1
    24    14    25    2
    25    15    16    1
    26    15    38    1
    27    15    39    1
    28    16    17    1
    29    16    18    1
    30    16    40    1
    31    18    19   ar
    32    18    23   ar
    33    19    20   ar
    34    19    41    1
    35    20    21   ar
    36    20    42    1
    37    21    22   ar
    38    21    24    1
    39    22    23   ar
    40    22    43    1
    41    23    44    1
    42    24    45    1
    43    26    46    1
    44    27    47    1
    45    28    48    1
    46    29    49    1
    47    30    50    1
    48     1    31    1
    49     1    27    1
    50     2    32    1
    51     2    28    1
    52     4    34    1
    53     4    30    1
