@<TRIPOS>MOLECULE
*****
 50 53 0 0 0
SMALL
GASTEIGER

@<TRIPOS>ATOM
     1 C         -0.476514   -2.131602   0.003257 C.3        1 UNL1     0.1889
     2 C         -0.665317   -0.68818   -0.536026 C.3        1 UNL1     0.1342
     3 C         -2.104824   -0.157157   -0.456654 C.3        1 UNL1     0.1174
     4 C         -3.153441   -1.248112   -0.687599 C.3        1 UNL1     0.1456
     5 C         -2.861526   -2.527339   0.117836 C.3        1 UNL1     0.2326
     6 O         -1.563738   -3.020555   -0.206748 O.3        1 UNL1     -0.3076
     7 O         -3.070739   -2.373666   1.53344 O.3        1 UNL1     -0.4605
     8 C         -3.758597   -1.23916   1.924943 C.ar        1 UNL1     0.1310
     9 C         -4.324219   -1.029663   3.187276 C.ar        1 UNL1     0.0226
     10 C         -4.988581   0.163938   3.493612 C.ar        1 UNL1     0.1343
     11 C         -5.082826   1.187584   2.551748 C.ar        1 UNL1     0.1007
     12 C         -4.557729   0.973901   1.274487 C.ar        1 UNL1     0.1389
     13 C         -3.892076   -0.227387   0.965871 C.ar        1 UNL1     0.0229
     14 C         -5.699894   2.501009   2.848894 C.2        1 UNL1     0.1740
     15 C         -5.516431   3.557022   1.798786 C.3        1 UNL1     0.0520
     16 C         -5.674242   2.90836   0.430469 C.3        1 UNL1     0.1322
     17 O         -4.688736   1.869577   0.238693 O.3        1 UNL1     -0.4828
     18 C         -7.110463   2.487152   0.110196 C.ar        1 UNL1     -0.0067
     19 C         -7.389457   1.857429   -1.12018 C.ar        1 UNL1     -0.0516
     20 C         -8.6991   1.502261   -1.46464 C.ar        1 UNL1     -0.0198
     21 C         -9.737123   1.777445   -0.59251 C.ar        1 UNL1     0.1169
     22 C         -9.48968   2.366275   0.640733 C.ar        1 UNL1     -0.0198
     23 C         -8.177759   2.70481   0.993315 C.ar        1 UNL1     -0.0516
     24 O         -11.004088   1.45138   -0.978363 O.3        1 UNL1     -0.5068
     25 O         -6.260186   2.760064   3.910708 O.2        1 UNL1     -0.2917
     26 O         -5.519101   0.305047   4.742701 O.3        1 UNL1     -0.5058
     27 O         -0.013102   -2.178341   1.343351 O.3        1 UNL1     -0.3648
     28 O         -0.275754   -0.66442   -1.921804 O.3        1 UNL1     -0.3841
     29 O         -2.313483   0.562323   0.760287 O.3        1 UNL1     -0.3863
     30 O         -3.188324   -1.581927   -2.092248 O.3        1 UNL1     -0.3829
     31 H         0.336364   -2.57923   -0.578927 H        1 UNL1     0.0937
     32 H         0.0   0.0   0.0 H        1 UNL1     0.0671
     33 H         -2.234019   0.582757   -1.258873 H        1 UNL1     0.0649
     34 H         -4.1481   -0.87291   -0.4225 H        1 UNL1     0.0683
     35 H         -3.585449   -3.255005   -0.26987 H        1 UNL1     0.1085
     36 H         -4.236293   -1.763954   3.980501 H        1 UNL1     0.0691
     37 H         -3.493047   -0.369578   -0.036152 H        1 UNL1     0.0691
     38 H         -4.512654   3.977076   1.923342 H        1 UNL1     0.0385
     39 H         -6.245255   4.357852   1.963902 H        1 UNL1     0.0385
     40 H         -5.420465   3.669448   -0.319773 H        1 UNL1     0.0789
     41 H         -6.593347   1.638906   -1.825947 H        1 UNL1     0.0623
     42 H         -8.902951   1.027922   -2.421436 H        1 UNL1     0.0654
     43 H         -10.293225   2.572571   1.337631 H        1 UNL1     0.0654
     44 H         -8.019615   3.153826   1.969133 H        1 UNL1     0.0623
     45 H         -11.284383   0.667069   -0.479356 H        1 UNL1     0.2921
     46 H         -6.136065   -0.42339   4.916334 H        1 UNL1     0.2922
     47 H         -0.20414   -1.343365   1.792994 H        1 UNL1     0.2126
     48 H         -0.921324   -1.216787   -2.403325 H        1 UNL1     0.2101
     49 H         -3.053824   0.172066   1.251601 H        1 UNL1     0.2100
     50 H         -2.270965   -1.544392   -2.433945 H        1 UNL1     0.2102
@<TRIPOS>BOND
     1     1     2    1
     2     1     6    1
     3     2     3    1
     4     3     4    1
     5     3    29    1
     6     3    33    1
     7     4     5    1
     8     5     6    1
     9     5     7    1
    10     5    35    1
    11     7     8    1
    12     8     9   ar
    13     8    13   ar
    14     9    10   ar
    15     9    36    1
    16    10    11   ar
    17    10    26    1
    18    11    12   ar
    19    11    14    1
    20    12    13   ar
    21    12    17    1
    22    13    37    1
    23    14    15    1
    24    14    25    2
    25    15    16    1
    26    15    38    1
    27    15    39    1
    28    16    17    1
    29    16    18    1
    30    16    40    1
    31    18    19   ar
    32    18    23   ar
    33    19    20   ar
    34    19    41    1
    35    20    21   ar
    36    20    42    1
    37    21    22   ar
    38    21    24    1
    39    22    23   ar
    40    22    43    1
    41    23    44    1
    42    24    45    1
    43    26    46    1
    44    27    47    1
    45    28    48    1
    46    29    49    1
    47    30    50    1
    48     1    31    1
    49     1    27    1
    50     2    32    1
    51     2    28    1
    52     4    34    1
    53     4    30    1
