@<TRIPOS>MOLECULE
*****
 50 53 0 0 0
SMALL
GASTEIGER

@<TRIPOS>ATOM
     1 C         2.136198   -0.012751   0.455303 C.3        1 UNL1     0.1889
     2 C         0.704594   -0.597407   0.591789 C.3        1 UNL1     0.1342
     3 C         0.187709   -0.697461   2.035148 C.3        1 UNL1     0.1174
     4 C         1.293731   -1.029381   3.039967 C.3        1 UNL1     0.1456
     5 C         2.555387   -0.171435   2.833773 C.3        1 UNL1     0.2326
     6 O         3.040305   -0.332193   1.502653 O.3        1 UNL1     -0.3076
     7 O         2.379078   1.206711   3.209206 O.3        1 UNL1     -0.4605
     8 C         1.071542   1.628867   3.3694 C.ar        1 UNL1     0.1310
     9 C         -0.059269   0.808041   3.300049 C.ar        1 UNL1     0.0226
     10 C         -1.344362   1.328528   3.493781 C.ar        1 UNL1     0.1343
     11 C         -1.528217   2.679444   3.785441 C.ar        1 UNL1     0.1007
     12 C         -0.409936   3.516852   3.816704 C.ar        1 UNL1     0.1389
     13 C         0.881891   2.993757   3.619257 C.ar        1 UNL1     0.0229
     14 C         -2.855776   3.265909   4.081753 C.2        1 UNL1     0.1740
     15 C         -2.84302   4.677101   4.591579 C.3        1 UNL1     0.0520
     16 C         -1.795747   5.461231   3.812916 C.3        1 UNL1     0.1322
     17 O         -0.484891   4.879714   3.987745 O.3        1 UNL1     -0.4828
     18 C         -2.18247   5.727446   2.356105 C.ar        1 UNL1     -0.0067
     19 C         -1.260959   6.365291   1.500426 C.ar        1 UNL1     -0.0516
     20 C         -1.600053   6.666224   0.175882 C.ar        1 UNL1     -0.0198
     21 C         -2.857227   6.341828   -0.301725 C.ar        1 UNL1     0.1169
     22 C         -3.774541   5.68324   0.506752 C.ar        1 UNL1     -0.0198
     23 C         -3.42917   5.365627   1.825804 C.ar        1 UNL1     -0.0516
     24 O         -3.16497   6.684508   -1.585573 O.3        1 UNL1     -0.5068
     25 O         -3.906669   2.635307   4.001448 O.2        1 UNL1     -0.2917
     26 O         -2.405548   0.474854   3.411866 O.3        1 UNL1     -0.5058
     27 O         2.154381   1.373102   0.152205 O.3        1 UNL1     -0.3648
     28 O         0.70105   -1.928099   0.042289 O.3        1 UNL1     -0.3841
     29 O         -0.550796   0.472894   2.391535 O.3        1 UNL1     -0.3863
     30 O         1.652566   -2.421918   2.906672 O.3        1 UNL1     -0.3829
     31 H         2.585266   -0.487038   -0.424167 H        1 UNL1     0.0937
     32 H         -0.0   0.0   0.0 H        1 UNL1     0.0671
     33 H         -0.536547   -1.523018   2.07551 H        1 UNL1     0.0649
     34 H         0.924601   -0.889906   4.062068 H        1 UNL1     0.0683
     35 H         3.297477   -0.62771   3.500852 H        1 UNL1     0.1085
     36 H         0.021088   -0.260371   3.132242 H        1 UNL1     0.0691
     37 H         1.736017   3.666931   3.647524 H        1 UNL1     0.0691
     38 H         -2.59748   4.641632   5.65834 H        1 UNL1     0.0385
     39 H         -3.845205   5.106191   4.485349 H        1 UNL1     0.0385
     40 H         -1.720674   6.452792   4.27949 H        1 UNL1     0.0789
     41 H         -0.271027   6.638453   1.854075 H        1 UNL1     0.0623
     42 H         -0.884931   7.168958   -0.470547 H        1 UNL1     0.0654
     43 H         -4.756441   5.411103   0.138343 H        1 UNL1     0.0654
     44 H         -4.166597   4.841439   2.426032 H        1 UNL1     0.0623
     45 H         -2.412304   7.16822   -1.96271 H        1 UNL1     0.2921
     46 H         -3.227448   0.963745   3.57581 H        1 UNL1     0.2922
     47 H         1.252261   1.70185   0.034038 H        1 UNL1     0.2126
     48 H         1.200552   -2.489573   0.665969 H        1 UNL1     0.2101
     49 H         -0.24127   1.23014   1.869457 H        1 UNL1     0.2100
     50 H         1.611223   -2.654251   1.95587 H        1 UNL1     0.2102
@<TRIPOS>BOND
     1     1     2    1
     2     1     6    1
     3     2     3    1
     4     3     4    1
     5     3    29    1
     6     3    33    1
     7     4     5    1
     8     5     6    1
     9     5     7    1
    10     5    35    1
    11     7     8    1
    12     8     9   ar
    13     8    13   ar
    14     9    10   ar
    15     9    36    1
    16    10    11   ar
    17    10    26    1
    18    11    12   ar
    19    11    14    1
    20    12    13   ar
    21    12    17    1
    22    13    37    1
    23    14    15    1
    24    14    25    2
    25    15    16    1
    26    15    38    1
    27    15    39    1
    28    16    17    1
    29    16    18    1
    30    16    40    1
    31    18    19   ar
    32    18    23   ar
    33    19    20   ar
    34    19    41    1
    35    20    21   ar
    36    20    42    1
    37    21    22   ar
    38    21    24    1
    39    22    23   ar
    40    22    43    1
    41    23    44    1
    42    24    45    1
    43    26    46    1
    44    27    47    1
    45    28    48    1
    46    29    49    1
    47    30    50    1
    48     1    31    1
    49     1    27    1
    50     2    32    1
    51     2    28    1
    52     4    34    1
    53     4    30    1
