@<TRIPOS>MOLECULE
*****
 50 53 0 0 0
SMALL
GASTEIGER

@<TRIPOS>ATOM
     1 C         0.520947   -1.630352   -1.356971 C.3        1 UNL1     0.1889
     2 C         0.231381   -1.070612   0.061755 C.3        1 UNL1     0.1342
     3 C         1.364738   -1.280562   1.077574 C.3        1 UNL1     0.1174
     4 C         2.112779   -2.599515   0.868017 C.3        1 UNL1     0.1456
     5 C         2.476688   -2.843611   -0.607906 C.3        1 UNL1     0.2326
     6 O         1.298088   -2.81764   -1.409838 O.3        1 UNL1     -0.3076
     7 O         3.511895   -1.970459   -1.095014 O.3        1 UNL1     -0.4605
     8 C         3.123855   -1.039131   -2.041366 C.ar        1 UNL1     0.1310
     9 C         3.642399   0.254307   -2.16558 C.ar        1 UNL1     0.0226
     10 C         3.195017   1.119954   -3.17077 C.ar        1 UNL1     0.1343
     11 C         2.234356   0.704435   -4.09181 C.ar        1 UNL1     0.1007
     12 C         1.679457   -0.570532   -3.952771 C.ar        1 UNL1     0.1389
     13 C         2.127561   -1.439807   -2.940352 C.ar        1 UNL1     0.0229
     14 C         1.786523   1.547802   -5.22421 C.2        1 UNL1     0.1740
     15 C         0.919582   0.863759   -6.240108 C.3        1 UNL1     0.0520
     16 C         -0.05607   -0.046107   -5.506485 C.3        1 UNL1     0.1322
     17 O         0.651969   -1.042375   -4.736288 O.3        1 UNL1     -0.4828
     18 C         -1.135732   0.708829   -4.727303 C.ar        1 UNL1     -0.0067
     19 C         -2.204204   -0.009095   -4.151833 C.ar        1 UNL1     -0.0516
     20 C         -3.233066   0.655119   -3.473434 C.ar        1 UNL1     -0.0198
     21 C         -3.208849   2.034461   -3.370208 C.ar        1 UNL1     0.1169
     22 C         -2.152865   2.766394   -3.897474 C.ar        1 UNL1     -0.0198
     23 C         -1.114422   2.100923   -4.559922 C.ar        1 UNL1     -0.0516
     24 O         -4.247458   2.649606   -2.735158 O.3        1 UNL1     -0.5068
     25 O         2.151163   2.70915   -5.387894 O.2        1 UNL1     -0.2917
     26 O         3.740441   2.368845   -3.236868 O.3        1 UNL1     -0.5058
     27 O         0.999302   -0.650437   -2.264566 O.3        1 UNL1     -0.3648
     28 O         -0.937944   -1.729764   0.582242 O.3        1 UNL1     -0.3841
     29 O         2.236327   -0.148459   1.106004 O.3        1 UNL1     -0.3863
     30 O         1.286944   -3.690923   1.329011 O.3        1 UNL1     -0.3829
     31 H         -0.443979   -1.937079   -1.775199 H        1 UNL1     0.0937
     32 H         0.0   0.0   0.0 H        1 UNL1     0.0671
     33 H         0.91358   -1.326651   2.0786 H        1 UNL1     0.0649
     34 H         3.02647   -2.611392   1.472523 H        1 UNL1     0.0683
     35 H         2.848951   -3.875657   -0.621366 H        1 UNL1     0.1085
     36 H         4.431053   0.617312   -1.515677 H        1 UNL1     0.0691
     37 H         1.678712   -2.426896   -2.852694 H        1 UNL1     0.0691
     38 H         1.57572   0.287846   -6.90142 H        1 UNL1     0.0385
     39 H         0.406446   1.621209   -6.842387 H        1 UNL1     0.0385
     40 H         -0.59735   -0.622248   -6.269111 H        1 UNL1     0.0789
     41 H         -2.250965   -1.091598   -4.227006 H        1 UNL1     0.0623
     42 H         -4.057657   0.091293   -3.044292 H        1 UNL1     0.0654
     43 H         -2.11627   3.84565   -3.809279 H        1 UNL1     0.0654
     44 H         -0.299926   2.703402   -4.950385 H        1 UNL1     0.0623
     45 H         -5.004878   2.042183   -2.7268 H        1 UNL1     0.2921
     46 H         3.827001   2.73188   -2.341253 H        1 UNL1     0.2922
     47 H         1.96341   -0.589125   -2.2136 H        1 UNL1     0.2126
     48 H         -0.750246   -1.934282   1.518551 H        1 UNL1     0.2101
     49 H         2.469881   0.111038   0.200516 H        1 UNL1     0.2100
     50 H         1.201019   -3.613962   2.301845 H        1 UNL1     0.2102
@<TRIPOS>BOND
     1     1     2    1
     2     1     6    1
     3     2     3    1
     4     3     4    1
     5     3    29    1
     6     3    33    1
     7     4     5    1
     8     5     6    1
     9     5     7    1
    10     5    35    1
    11     7     8    1
    12     8     9   ar
    13     8    13   ar
    14     9    10   ar
    15     9    36    1
    16    10    11   ar
    17    10    26    1
    18    11    12   ar
    19    11    14    1
    20    12    13   ar
    21    12    17    1
    22    13    37    1
    23    14    15    1
    24    14    25    2
    25    15    16    1
    26    15    38    1
    27    15    39    1
    28    16    17    1
    29    16    18    1
    30    16    40    1
    31    18    19   ar
    32    18    23   ar
    33    19    20   ar
    34    19    41    1
    35    20    21   ar
    36    20    42    1
    37    21    22   ar
    38    21    24    1
    39    22    23   ar
    40    22    43    1
    41    23    44    1
    42    24    45    1
    43    26    46    1
    44    27    47    1
    45    28    48    1
    46    29    49    1
    47    30    50    1
    48     1    31    1
    49     1    27    1
    50     2    32    1
    51     2    28    1
    52     4    34    1
    53     4    30    1
