@<TRIPOS>MOLECULE
*****
 50 53 0 0 0
SMALL
GASTEIGER

@<TRIPOS>ATOM
     1 C         1.332736   1.200606   -1.24626 C.3        1 UNL1     0.1889
     2 C         0.161243   0.197913   -1.066955 C.3        1 UNL1     0.1342
     3 C         0.342812   -1.138582   -1.802672 C.3        1 UNL1     0.1174
     4 C         1.077303   -0.986517   -3.137032 C.3        1 UNL1     0.1456
     5 C         2.333827   -0.104326   -3.021924 C.3        1 UNL1     0.2326
     6 O         1.981695   1.178593   -2.509099 O.3        1 UNL1     -0.3076
     7 O         3.40801   -0.728708   -2.295565 O.3        1 UNL1     -0.4605
     8 C         3.210357   -0.883579   -0.935243 C.ar        1 UNL1     0.1310
     9 C         2.741435   0.10772   -0.066486 C.ar        1 UNL1     0.0226
     10 C         2.557767   -0.152476   1.29677 C.ar        1 UNL1     0.1343
     11 C         2.816208   -1.418479   1.820493 C.ar        1 UNL1     0.1007
     12 C         3.323867   -2.404791   0.970636 C.ar        1 UNL1     0.1389
     13 C         3.510966   -2.14215   -0.399563 C.ar        1 UNL1     0.0229
     14 C         2.560193   -1.772039   3.235981 C.2        1 UNL1     0.1740
     15 C         2.681778   -3.229041   3.573489 C.3        1 UNL1     0.0520
     16 C         3.881259   -3.797808   2.828031 C.3        1 UNL1     0.1322
     17 O         3.714151   -3.651851   1.400501 O.3        1 UNL1     -0.4828
     18 C         5.228626   -3.306254   3.362541 C.ar        1 UNL1     -0.0067
     19 C         5.38512   -3.083138   4.745994 C.ar        1 UNL1     -0.0516
     20 C         6.588871   -2.588702   5.262208 C.ar        1 UNL1     -0.0198
     21 C         7.638757   -2.307111   4.406478 C.ar        1 UNL1     0.1169
     22 C         7.526417   -2.547963   3.043317 C.ar        1 UNL1     -0.0198
     23 C         6.329074   -3.059802   2.529072 C.ar        1 UNL1     -0.0516
     24 O         8.782647   -1.791104   4.940944 O.3        1 UNL1     -0.5068
     25 O         2.192614   -0.959105   4.080083 O.2        1 UNL1     -0.2917
     26 O         2.098751   0.85788   2.090539 O.3        1 UNL1     -0.5058
     27 O         2.265549   1.177154   -0.17757 O.3        1 UNL1     -0.3648
     28 O         -1.041246   0.806025   -1.573835 O.3        1 UNL1     -0.3841
     29 O         0.946074   -2.110802   -0.946521 O.3        1 UNL1     -0.3863
     30 O         0.183078   -0.396422   -4.105452 O.3        1 UNL1     -0.3829
     31 H         0.895465   2.203992   -1.200537 H        1 UNL1     0.0937
     32 H         0.0   -0.0   0.0 H        1 UNL1     0.0671
     33 H         -0.656707   -1.532953   -2.033224 H        1 UNL1     0.0649
     34 H         1.361442   -1.972158   -3.521971 H        1 UNL1     0.0683
     35 H         2.649332   0.043683   -4.062323 H        1 UNL1     0.1085
     36 H         2.469434   1.095475   -0.422119 H        1 UNL1     0.0691
     37 H         3.908485   -2.926679   -1.039865 H        1 UNL1     0.0691
     38 H         1.753761   -3.719854   3.261375 H        1 UNL1     0.0385
     39 H         2.778623   -3.339166   4.658971 H        1 UNL1     0.0385
     40 H         3.881035   -4.883476   2.994897 H        1 UNL1     0.0789
     41 H         4.572887   -3.287636   5.437448 H        1 UNL1     0.0623
     42 H         6.693155   -2.409612   6.329477 H        1 UNL1     0.0654
     43 H         8.347485   -2.345174   2.366092 H        1 UNL1     0.0654
     44 H         6.279949   -3.245824   1.460509 H        1 UNL1     0.0623
     45 H         8.926246   -2.199117   5.810209 H        1 UNL1     0.2921
     46 H         2.150994   1.697841   1.607686 H        1 UNL1     0.2922
     47 H         1.855427   0.807451   0.616772 H        1 UNL1     0.2126
     48 H         -0.787618   1.685148   -1.915228 H        1 UNL1     0.2101
     49 H         1.610498   -2.617882   -1.439679 H        1 UNL1     0.2100
     50 H         0.644682   0.362249   -4.519037 H        1 UNL1     0.2102
@<TRIPOS>BOND
     1     1     2    1
     2     1     6    1
     3     2     3    1
     4     3     4    1
     5     3    29    1
     6     3    33    1
     7     4     5    1
     8     5     6    1
     9     5     7    1
    10     5    35    1
    11     7     8    1
    12     8     9   ar
    13     8    13   ar
    14     9    10   ar
    15     9    36    1
    16    10    11   ar
    17    10    26    1
    18    11    12   ar
    19    11    14    1
    20    12    13   ar
    21    12    17    1
    22    13    37    1
    23    14    15    1
    24    14    25    2
    25    15    16    1
    26    15    38    1
    27    15    39    1
    28    16    17    1
    29    16    18    1
    30    16    40    1
    31    18    19   ar
    32    18    23   ar
    33    19    20   ar
    34    19    41    1
    35    20    21   ar
    36    20    42    1
    37    21    22   ar
    38    21    24    1
    39    22    23   ar
    40    22    43    1
    41    23    44    1
    42    24    45    1
    43    26    46    1
    44    27    47    1
    45    28    48    1
    46    29    49    1
    47    30    50    1
    48     1    31    1
    49     1    27    1
    50     2    32    1
    51     2    28    1
    52     4    34    1
    53     4    30    1
