@<TRIPOS>MOLECULE
*****
 50 53 0 0 0
SMALL
GASTEIGER

@<TRIPOS>ATOM
     1 C         0.970326   -0.095997   1.954496 C.3        1 UNL1     0.1889
     2 C         0.930045   -0.391007   0.430919 C.3        1 UNL1     0.1342
     3 C         1.068072   -1.87589   0.061411 C.3        1 UNL1     0.1174
     4 C         2.000167   -2.63846   1.006294 C.3        1 UNL1     0.1456
     5 C         1.713833   -2.336523   2.488594 C.3        1 UNL1     0.2326
     6 O         1.816086   -0.934643   2.727645 O.3        1 UNL1     -0.3076
     7 O         0.477454   -2.902299   2.960383 O.3        1 UNL1     -0.4605
     8 C         0.592531   -3.9945   3.801443 C.ar        1 UNL1     0.1310
     9 C         -0.406944   -4.94467   4.037086 C.ar        1 UNL1     0.0226
     10 C         -0.18745   -6.028172   4.896008 C.ar        1 UNL1     0.1343
     11 C         1.04617   -6.201004   5.522229 C.ar        1 UNL1     0.1007
     12 C         2.038247   -5.236436   5.326843 C.ar        1 UNL1     0.1389
     13 C         1.816405   -4.145641   4.465226 C.ar        1 UNL1     0.0229
     14 C         1.360272   -7.372055   6.373188 C.2        1 UNL1     0.1740
     15 C         2.797373   -7.510892   6.781863 C.3        1 UNL1     0.0520
     16 C         3.337709   -6.12837   7.120429 C.3        1 UNL1     0.1322
     17 O         3.250358   -5.249553   5.977135 O.3        1 UNL1     -0.4828
     18 C         2.76723   -5.54386   8.414889 C.ar        1 UNL1     -0.0067
     19 C         3.548525   -4.648323   9.173707 C.ar        1 UNL1     -0.0516
     20 C         3.075829   -4.132372   10.386272 C.ar        1 UNL1     -0.0198
     21 C         1.829368   -4.509097   10.853434 C.ar        1 UNL1     0.1169
     22 C         1.022907   -5.363068   10.112358 C.ar        1 UNL1     -0.0198
     23 C         1.487775   -5.864706   8.890756 C.ar        1 UNL1     -0.0516
     24 O         1.418158   -4.015864   12.056775 O.3        1 UNL1     -0.5068
     25 O         0.53518   -8.231299   6.672199 O.2        1 UNL1     -0.2917
     26 O         -1.203727   -6.918918   5.083997 O.3        1 UNL1     -0.5058
     27 O         -0.31569   0.033213   2.539522 O.3        1 UNL1     -0.3648
     28 O         2.018755   0.31002   -0.198348 O.3        1 UNL1     -0.3841
     29 O         -0.216739   -2.489086   -0.062626 O.3        1 UNL1     -0.3863
     30 O         3.368056   -2.278204   0.715116 O.3        1 UNL1     -0.3829
     31 H         1.419695   0.896471   2.069186 H        1 UNL1     0.0937
     32 H         0.0   0.0   0.0 H        1 UNL1     0.0671
     33 H         1.516046   -1.93189   -0.940539 H        1 UNL1     0.0649
     34 H         1.908636   -3.716343   0.832537 H        1 UNL1     0.0683
     35 H         2.546718   -2.812483   3.021176 H        1 UNL1     0.1085
     36 H         -1.36815   -4.897158   3.537141 H        1 UNL1     0.0691
     37 H         2.604532   -3.407874   4.330881 H        1 UNL1     0.0691
     38 H         3.3403   -7.951599   5.938931 H        1 UNL1     0.0385
     39 H         2.864297   -8.200727   7.630055 H        1 UNL1     0.0385
     40 H         4.415653   -6.237449   7.301144 H        1 UNL1     0.0789
     41 H         4.534042   -4.344278   8.833171 H        1 UNL1     0.0623
     42 H         3.692639   -3.451898   10.96809 H        1 UNL1     0.0654
     43 H         0.039012   -5.652765   10.461553 H        1 UNL1     0.0654
     44 H         0.826919   -6.52117   8.332931 H        1 UNL1     0.0623
     45 H         2.178338   -4.007482   12.660739 H        1 UNL1     0.2921
     46 H         -1.636593   -7.099836   4.234699 H        1 UNL1     0.2922
     47 H         -0.297649   0.694927   3.244978 H        1 UNL1     0.2126
     48 H         2.598137   0.629436   0.519999 H        1 UNL1     0.2101
     49 H         -0.89683   -1.909903   0.316607 H        1 UNL1     0.2100
     50 H         3.80562   -2.047502   1.560709 H        1 UNL1     0.2102
@<TRIPOS>BOND
     1     1     2    1
     2     1     6    1
     3     2     3    1
     4     3     4    1
     5     3    29    1
     6     3    33    1
     7     4     5    1
     8     5     6    1
     9     5     7    1
    10     5    35    1
    11     7     8    1
    12     8     9   ar
    13     8    13   ar
    14     9    10   ar
    15     9    36    1
    16    10    11   ar
    17    10    26    1
    18    11    12   ar
    19    11    14    1
    20    12    13   ar
    21    12    17    1
    22    13    37    1
    23    14    15    1
    24    14    25    2
    25    15    16    1
    26    15    38    1
    27    15    39    1
    28    16    17    1
    29    16    18    1
    30    16    40    1
    31    18    19   ar
    32    18    23   ar
    33    19    20   ar
    34    19    41    1
    35    20    21   ar
    36    20    42    1
    37    21    22   ar
    38    21    24    1
    39    22    23   ar
    40    22    43    1
    41    23    44    1
    42    24    45    1
    43    26    46    1
    44    27    47    1
    45    28    48    1
    46    29    49    1
    47    30    50    1
    48     1    31    1
    49     1    27    1
    50     2    32    1
    51     2    28    1
    52     4    34    1
    53     4    30    1
