@<TRIPOS>MOLECULE
*****
 50 53 0 0 0
SMALL
GASTEIGER

@<TRIPOS>ATOM
     1 C         -0.335413   -1.32987   1.699926 C.3        1 UNL1     0.1889
     2 C         -0.464271   -0.974839   0.194174 C.3        1 UNL1     0.1342
     3 C         -1.904727   -0.959141   -0.339966 C.3        1 UNL1     0.1174
     4 C         -2.793298   -2.01769   0.318086 C.3        1 UNL1     0.1456
     5 C         -2.642745   -2.045199   1.850059 C.3        1 UNL1     0.2326
     6 O         -1.278461   -2.266073   2.200505 O.3        1 UNL1     -0.3076
     7 O         -3.21612   -0.897972   2.503076 O.3        1 UNL1     -0.4605
     8 C         -3.727285   -1.114186   3.770155 C.ar        1 UNL1     0.1310
     9 C         -4.545865   -2.186197   4.141668 C.ar        1 UNL1     0.0226
     10 C         -5.000183   -2.32751   5.458303 C.ar        1 UNL1     0.1343
     11 C         -4.627048   -1.412325   6.441688 C.ar        1 UNL1     0.1007
     12 C         -3.843621   -0.315157   6.073926 C.ar        1 UNL1     0.1389
     13 C         -3.389111   -0.171851   4.749421 C.ar        1 UNL1     0.0229
     14 C         -5.009163   -1.559357   7.865248 C.2        1 UNL1     0.1740
     15 C         -4.339328   -0.613571   8.818327 C.3        1 UNL1     0.0520
     16 C         -4.267036   0.759149   8.163827 C.3        1 UNL1     0.1322
     17 O         -3.507534   0.702568   6.936218 O.3        1 UNL1     -0.4828
     18 C         -5.624942   1.454157   8.038201 C.ar        1 UNL1     -0.0067
     19 C         -6.001209   2.020919   6.803124 C.ar        1 UNL1     -0.0516
     20 C         -7.215139   2.704826   6.666712 C.ar        1 UNL1     -0.0198
     21 C         -8.056287   2.834909   7.757297 C.ar        1 UNL1     0.1169
     22 C         -7.728797   2.25888   8.977863 C.ar        1 UNL1     -0.0198
     23 C         -6.52343   1.559049   9.109701 C.ar        1 UNL1     -0.0516
     24 O         -9.212572   3.54026   7.596409 O.3        1 UNL1     -0.5068
     25 O         -5.759868   -2.440256   8.276278 O.2        1 UNL1     -0.2917
     26 O         -5.796649   -3.394798   5.755162 O.3        1 UNL1     -0.5058
     27 O         -0.228682   -0.19288   2.541738 O.3        1 UNL1     -0.3648
     28 O         0.26506   -1.95359   -0.569258 O.3        1 UNL1     -0.3841
     29 O         -2.459928   0.35535   -0.262533 O.3        1 UNL1     -0.3863
     30 O         -2.44767   -3.318438   -0.205636 O.3        1 UNL1     -0.3829
     31 H         0.624279   -1.844557   1.818959 H        1 UNL1     0.0937
     32 H         0.0   0.0   0.0 H        1 UNL1     0.0671
     33 H         -1.867422   -1.197416   -1.412138 H        1 UNL1     0.0649
     34 H         -3.842938   -1.837204   0.061023 H        1 UNL1     0.0683
     35 H         -3.199224   -2.940477   2.154506 H        1 UNL1     0.1085
     36 H         -4.82512   -2.961462   3.436614 H        1 UNL1     0.0691
     37 H         -2.781308   0.691844   4.488462 H        1 UNL1     0.0691
     38 H         -3.337853   -1.005775   9.025087 H        1 UNL1     0.0385
     39 H         -4.90023   -0.594762   9.758972 H        1 UNL1     0.0385
     40 H         -3.671501   1.402388   8.825719 H        1 UNL1     0.0789
     41 H         -5.354253   1.940442   5.934434 H        1 UNL1     0.0623
     42 H         -7.488562   3.147718   5.712197 H        1 UNL1     0.0654
     43 H         -8.387134   2.341787   9.834385 H        1 UNL1     0.0654
     44 H         -6.304462   1.112738   10.07495 H        1 UNL1     0.0623
     45 H         -8.984643   4.448126   7.338446 H        1 UNL1     0.2921
     46 H         -5.394284   -3.909017   6.472861 H        1 UNL1     0.2922
     47 H         0.515442   0.35991   2.265039 H        1 UNL1     0.2126
     48 H         1.197907   -1.889737   -0.287386 H        1 UNL1     0.2101
     49 H         -2.019628   0.937749   -0.901862 H        1 UNL1     0.2100
     50 H         -2.680322   -3.331898   -1.157164 H        1 UNL1     0.2102
@<TRIPOS>BOND
     1     1     2    1
     2     1     6    1
     3     2     3    1
     4     3     4    1
     5     3    29    1
     6     3    33    1
     7     4     5    1
     8     5     6    1
     9     5     7    1
    10     5    35    1
    11     7     8    1
    12     8     9   ar
    13     8    13   ar
    14     9    10   ar
    15     9    36    1
    16    10    11   ar
    17    10    26    1
    18    11    12   ar
    19    11    14    1
    20    12    13   ar
    21    12    17    1
    22    13    37    1
    23    14    15    1
    24    14    25    2
    25    15    16    1
    26    15    38    1
    27    15    39    1
    28    16    17    1
    29    16    18    1
    30    16    40    1
    31    18    19   ar
    32    18    23   ar
    33    19    20   ar
    34    19    41    1
    35    20    21   ar
    36    20    42    1
    37    21    22   ar
    38    21    24    1
    39    22    23   ar
    40    22    43    1
    41    23    44    1
    42    24    45    1
    43    26    46    1
    44    27    47    1
    45    28    48    1
    46    29    49    1
    47    30    50    1
    48     1    31    1
    49     1    27    1
    50     2    32    1
    51     2    28    1
    52     4    34    1
    53     4    30    1
