@<TRIPOS>MOLECULE
*****
 50 53 0 0 0
SMALL
GASTEIGER

@<TRIPOS>ATOM
     1 C         -0.698629   -1.042264   1.78785 C.3        1 UNL1     0.1889
     2 C         -0.554955   -0.913418   0.247494 C.3        1 UNL1     0.1342
     3 C         -1.884164   -0.916466   -0.522999 C.3        1 UNL1     0.1174
     4 C         -2.938294   -1.82423   0.115666 C.3        1 UNL1     0.1456
     5 C         -3.042644   -1.626592   1.638956 C.3        1 UNL1     0.2326
     6 O         -1.772293   -1.850626   2.246316 O.3        1 UNL1     -0.3076
     7 O         -3.635813   -0.370286   2.014676 O.3        1 UNL1     -0.4605
     8 C         -4.3672   -0.372289   3.188813 C.ar        1 UNL1     0.1310
     9 C         -5.310007   -1.339053   3.554576 C.ar        1 UNL1     0.0226
     10 C         -5.988592   -1.262259   4.776676 C.ar        1 UNL1     0.1343
     11 C         -5.723188   -0.22873   5.674017 C.ar        1 UNL1     0.1007
     12 C         -4.813806   0.765029   5.302197 C.ar        1 UNL1     0.1389
     13 C         -4.133565   0.689024   4.072186 C.ar        1 UNL1     0.0229
     14 C         -6.349214   -0.144935   7.013876 C.2        1 UNL1     0.1740
     15 C         -5.78484   0.900925   7.929959 C.3        1 UNL1     0.0520
     16 C         -5.506914   2.156315   7.114661 C.3        1 UNL1     0.1322
     17 O         -4.557201   1.883506   6.060768 O.3        1 UNL1     -0.4828
     18 C         -6.771933   2.885454   6.655523 C.ar        1 UNL1     -0.0067
     19 C         -6.886999   3.292598   5.310455 C.ar        1 UNL1     -0.0516
     20 C         -8.009457   4.003046   4.868512 C.ar        1 UNL1     -0.0198
     21 C         -9.017987   4.318192   5.761472 C.ar        1 UNL1     0.1169
     22 C         -8.948914   3.901988   7.084666 C.ar        1 UNL1     -0.0198
     23 C         -7.835135   3.175523   7.522619 C.ar        1 UNL1     -0.0516
     24 O         -10.078094   5.044   5.303459 O.3        1 UNL1     -0.5068
     25 O         -7.218514   -0.920095   7.403657 O.2        1 UNL1     -0.2917
     26 O         -6.896739   -2.236462   5.072956 O.3        1 UNL1     -0.5058
     27 O         -0.654037   0.203119   2.46595 O.3        1 UNL1     -0.3648
     28 O         0.22122   -2.026731   -0.232915 O.3        1 UNL1     -0.3841
     29 O         -2.353906   0.417345   -0.728969 O.3        1 UNL1     -0.3863
     30 O         -2.600858   -3.202815   -0.151413 O.3        1 UNL1     -0.3829
     31 H         0.191422   -1.573964   2.141663 H        1 UNL1     0.0937
     32 H         0.0   0.0   -0.0 H        1 UNL1     0.0671
     33 H         -1.688224   -1.315269   -1.528128 H        1 UNL1     0.0649
     34 H         -3.917002   -1.639547   -0.340868 H        1 UNL1     0.0683
     35 H         -3.700983   -2.440812   1.96685 H        1 UNL1     0.1085
     36 H         -5.5202   -2.197189   2.925654 H        1 UNL1     0.0691
     37 H         -3.431272   1.475964   3.805725 H        1 UNL1     0.0691
     38 H         -4.862645   0.499063   8.363076 H        1 UNL1     0.0385
     39 H         -6.493569   1.084764   8.744627 H        1 UNL1     0.0385
     40 H         -4.987768   2.863336   7.775817 H        1 UNL1     0.0789
     41 H         -6.104751   3.065466   4.592019 H        1 UNL1     0.0623
     42 H         -8.080994   4.321777   3.831543 H        1 UNL1     0.0654
     43 H         -9.740045   4.130342   7.788851 H        1 UNL1     0.0654
     44 H         -7.819196   2.857239   8.560543 H        1 UNL1     0.0623
     45 H         -9.752094   5.908913   5.006197 H        1 UNL1     0.2921
     46 H         -6.659077   -2.654866   5.915492 H        1 UNL1     0.2922
     47 H         0.156616   0.679448   2.238327 H        1 UNL1     0.2126
     48 H         1.110915   -1.937605   0.159807 H        1 UNL1     0.2101
     49 H         -1.781316   0.874281   -1.365478 H        1 UNL1     0.2100
     50 H         -2.680548   -3.351211   -1.116473 H        1 UNL1     0.2102
@<TRIPOS>BOND
     1     1     2    1
     2     1     6    1
     3     2     3    1
     4     3     4    1
     5     3    29    1
     6     3    33    1
     7     4     5    1
     8     5     6    1
     9     5     7    1
    10     5    35    1
    11     7     8    1
    12     8     9   ar
    13     8    13   ar
    14     9    10   ar
    15     9    36    1
    16    10    11   ar
    17    10    26    1
    18    11    12   ar
    19    11    14    1
    20    12    13   ar
    21    12    17    1
    22    13    37    1
    23    14    15    1
    24    14    25    2
    25    15    16    1
    26    15    38    1
    27    15    39    1
    28    16    17    1
    29    16    18    1
    30    16    40    1
    31    18    19   ar
    32    18    23   ar
    33    19    20   ar
    34    19    41    1
    35    20    21   ar
    36    20    42    1
    37    21    22   ar
    38    21    24    1
    39    22    23   ar
    40    22    43    1
    41    23    44    1
    42    24    45    1
    43    26    46    1
    44    27    47    1
    45    28    48    1
    46    29    49    1
    47    30    50    1
    48     1    31    1
    49     1    27    1
    50     2    32    1
    51     2    28    1
    52     4    34    1
    53     4    30    1
