@<TRIPOS>MOLECULE
*****
 50 53 0 0 0
SMALL
GASTEIGER

@<TRIPOS>ATOM
     1 C         -0.392846   -1.379329   1.647401 C.3        1 UNL1     0.1889
     2 C         -0.492843   -0.967989   0.153834 C.3        1 UNL1     0.1342
     3 C         -1.925414   -0.89397   -0.396372 C.3        1 UNL1     0.1174
     4 C         -2.85055   -1.950321   0.213024 C.3        1 UNL1     0.1456
     5 C         -2.720366   -2.035986   1.744715 C.3        1 UNL1     0.2326
     6 O         -1.367123   -2.306406   2.10315 O.3        1 UNL1     -0.3076
     7 O         -3.270872   -0.897227   2.431368 O.3        1 UNL1     -0.4605
     8 C         -3.814012   -1.145959   3.679029 C.ar        1 UNL1     0.1310
     9 C         -4.898844   -1.990953   3.936757 C.ar        1 UNL1     0.0226
     10 C         -5.366031   -2.191594   5.241127 C.ar        1 UNL1     0.1343
     11 C         -4.743989   -1.570029   6.323052 C.ar        1 UNL1     0.1007
     12 C         -3.68578   -0.691939   6.074184 C.ar        1 UNL1     0.1389
     13 C         -3.217899   -0.488308   4.762295 C.ar        1 UNL1     0.0229
     14 C         -5.142811   -1.811781   7.728986 C.2        1 UNL1     0.1740
     15 C         -4.227656   -1.239085   8.771129 C.3        1 UNL1     0.0520
     16 C         -3.776094   0.139979   8.310443 C.3        1 UNL1     0.1322
     17 O         -3.071205   0.054984   7.052279 O.3        1 UNL1     -0.4828
     18 C         -4.884214   1.195193   8.346725 C.ar        1 UNL1     -0.0067
     19 C         -4.558135   2.549637   8.129084 C.ar        1 UNL1     -0.0516
     20 C         -5.539452   3.545442   8.202241 C.ar        1 UNL1     -0.0198
     21 C         -6.846139   3.201317   8.498845 C.ar        1 UNL1     0.1169
     22 C         -7.204441   1.872506   8.685174 C.ar        1 UNL1     -0.0198
     23 C         -6.22679   0.87455   8.593857 C.ar        1 UNL1     -0.0516
     24 O         -7.767264   4.20226   8.599066 O.3        1 UNL1     -0.5068
     25 O         -6.108458   -2.499935   8.04907 O.2        1 UNL1     -0.2917
     26 O         -6.428798   -3.027323   5.424614 O.3        1 UNL1     -0.5058
     27 O         -0.266237   -0.276103   2.530379 O.3        1 UNL1     -0.3648
     28 O         0.219504   -1.938819   -0.635314 O.3        1 UNL1     -0.3841
     29 O         -2.445893   0.431697   -0.278726 O.3        1 UNL1     -0.3863
     30 O         -2.533482   -3.240766   -0.352582 O.3        1 UNL1     -0.3829
     31 H         0.551012   -1.924011   1.759345 H        1 UNL1     0.0937
     32 H         0.0   0.0   0.0 H        1 UNL1     0.0671
     33 H         -1.880865   -1.095198   -1.475836 H        1 UNL1     0.0649
     34 H         -3.89157   -1.732169   -0.049818 H        1 UNL1     0.0683
     35 H         -3.304638   -2.925856   2.01049 H        1 UNL1     0.1085
     36 H         -5.389613   -2.546432   3.145107 H        1 UNL1     0.0691
     37 H         -2.393241   0.201228   4.595043 H        1 UNL1     0.0691
     38 H         -3.375774   -1.919714   8.873928 H        1 UNL1     0.0385
     39 H         -4.754473   -1.203111   9.730789 H        1 UNL1     0.0385
     40 H         -3.019289   0.488619   9.026137 H        1 UNL1     0.0789
     41 H         -3.537987   2.846557   7.903724 H        1 UNL1     0.0623
     42 H         -5.273242   4.587633   8.044183 H        1 UNL1     0.0654
     43 H         -8.227589   1.590384   8.903087 H        1 UNL1     0.0654
     44 H         -6.544127   -0.154193   8.734672 H        1 UNL1     0.0623
     45 H         -7.297068   5.037218   8.755518 H        1 UNL1     0.2921
     46 H         -6.253146   -3.613557   6.177533 H        1 UNL1     0.2922
     47 H         -1.140337   0.044748   2.792794 H        1 UNL1     0.2126
     48 H         -0.329266   -2.115491   -1.423585 H        1 UNL1     0.2101
     49 H         -3.002526   0.498599   0.513409 H        1 UNL1     0.2100
     50 H         -2.92703   -3.282097   -1.248754 H        1 UNL1     0.2102
@<TRIPOS>BOND
     1     1     2    1
     2     1     6    1
     3     2     3    1
     4     3     4    1
     5     3    29    1
     6     3    33    1
     7     4     5    1
     8     5     6    1
     9     5     7    1
    10     5    35    1
    11     7     8    1
    12     8     9   ar
    13     8    13   ar
    14     9    10   ar
    15     9    36    1
    16    10    11   ar
    17    10    26    1
    18    11    12   ar
    19    11    14    1
    20    12    13   ar
    21    12    17    1
    22    13    37    1
    23    14    15    1
    24    14    25    2
    25    15    16    1
    26    15    38    1
    27    15    39    1
    28    16    17    1
    29    16    18    1
    30    16    40    1
    31    18    19   ar
    32    18    23   ar
    33    19    20   ar
    34    19    41    1
    35    20    21   ar
    36    20    42    1
    37    21    22   ar
    38    21    24    1
    39    22    23   ar
    40    22    43    1
    41    23    44    1
    42    24    45    1
    43    26    46    1
    44    27    47    1
    45    28    48    1
    46    29    49    1
    47    30    50    1
    48     1    31    1
    49     1    27    1
    50     2    32    1
    51     2    28    1
    52     4    34    1
    53     4    30    1
