@<TRIPOS>MOLECULE
*****
 50 53 0 0 0
SMALL
GASTEIGER

@<TRIPOS>ATOM
     1 C         -0.326216   -1.366592   1.672368 C.3        1 UNL1     0.1889
     2 C         -0.462014   -0.979504   0.17515 C.3        1 UNL1     0.1342
     3 C         -1.904756   -0.954574   -0.352427 C.3        1 UNL1     0.1174
     4 C         -2.788965   -2.028389   0.286488 C.3        1 UNL1     0.1456
     5 C         -2.631839   -2.08856   1.816865 C.3        1 UNL1     0.2326
     6 O         -1.265752   -2.314792   2.156707 O.3        1 UNL1     -0.3076
     7 O         -3.204098   -0.956513   2.496799 O.3        1 UNL1     -0.4605
     8 C         -3.71974   -1.203082   3.756499 C.ar        1 UNL1     0.1310
     9 C         -4.542368   -2.281802   4.098477 C.ar        1 UNL1     0.0226
     10 C         -5.001113   -2.454899   5.409771 C.ar        1 UNL1     0.1343
     11 C         -4.628516   -1.565769   6.416976 C.ar        1 UNL1     0.1007
     12 C         -3.840984   -0.461896   6.079275 C.ar        1 UNL1     0.1389
     13 C         -3.382018   -0.28661   4.760163 C.ar        1 UNL1     0.0229
     14 C         -5.015402   -1.747472   7.835234 C.2        1 UNL1     0.1740
     15 C         -4.345932   -0.827818   8.813802 C.3        1 UNL1     0.0520
     16 C         -4.267899   0.560714   8.194248 C.3        1 UNL1     0.1322
     17 O         -3.504784   0.532888   6.967891 O.3        1 UNL1     -0.4828
     18 C         -5.623518   1.262451   8.082061 C.ar        1 UNL1     -0.0067
     19 C         -5.697996   2.531612   7.472227 C.ar        1 UNL1     -0.0516
     20 C         -6.913767   3.221545   7.395699 C.ar        1 UNL1     -0.0198
     21 C         -8.058168   2.657571   7.930589 C.ar        1 UNL1     0.1169
     22 C         -8.02314   1.394756   8.507571 C.ar        1 UNL1     -0.0198
     23 C         -6.811094   0.696632   8.567764 C.ar        1 UNL1     -0.0516
     24 O         -9.216424   3.375428   7.871214 O.3        1 UNL1     -0.5068
     25 O         -5.769757   -2.636324   8.221726 O.2        1 UNL1     -0.2917
     26 O         -5.801384   -3.527082   5.677304 O.3        1 UNL1     -0.5058
     27 O         -0.217556   -0.247779   2.537953 O.3        1 UNL1     -0.3648
     28 O         0.265483   -1.9405   -0.612213 O.3        1 UNL1     -0.3841
     29 O         -2.461542   0.357088   -0.244423 O.3        1 UNL1     -0.3863
     30 O         -2.443675   -3.317051   -0.266516 O.3        1 UNL1     -0.3829
     31 H         0.634726   -1.882226   1.776253 H        1 UNL1     0.0937
     32 H         0.0   0.0   0.0 H        1 UNL1     0.0671
     33 H         -1.871678   -1.169709   -1.429619 H        1 UNL1     0.0649
     34 H         -3.839955   -1.844053   0.037807 H        1 UNL1     0.0683
     35 H         -3.185706   -2.991033   2.104362 H        1 UNL1     0.1085
     36 H         -4.821561   -3.038315   3.373315 H        1 UNL1     0.0691
     37 H         -2.771071   0.58167   4.522832 H        1 UNL1     0.0691
     38 H         -3.346166   -1.227892   9.013642 H        1 UNL1     0.0385
     39 H         -4.909669   -0.831094   9.752934 H        1 UNL1     0.0385
     40 H         -3.672655   1.185445   8.873892 H        1 UNL1     0.0789
     41 H         -4.812149   2.99978   7.053008 H        1 UNL1     0.0623
     42 H         -6.955974   4.204743   6.933582 H        1 UNL1     0.0654
     43 H         -8.916322   0.937312   8.916083 H        1 UNL1     0.0654
     44 H         -6.82245   -0.292187   9.016041 H        1 UNL1     0.0623
     45 H         -9.098035   4.191564   8.383681 H        1 UNL1     0.2921
     46 H         -5.41456   -4.047376   6.399158 H        1 UNL1     0.2922
     47 H         0.511665   0.322791   2.257693 H        1 UNL1     0.2126
     48 H         1.21047   -1.820477   -0.396979 H        1 UNL1     0.2101
     49 H         -2.030934   0.95168   -0.879112 H        1 UNL1     0.2100
     50 H         -2.706314   -3.320315   -1.210297 H        1 UNL1     0.2102
@<TRIPOS>BOND
     1     1     2    1
     2     1     6    1
     3     2     3    1
     4     3     4    1
     5     3    29    1
     6     3    33    1
     7     4     5    1
     8     5     6    1
     9     5     7    1
    10     5    35    1
    11     7     8    1
    12     8     9   ar
    13     8    13   ar
    14     9    10   ar
    15     9    36    1
    16    10    11   ar
    17    10    26    1
    18    11    12   ar
    19    11    14    1
    20    12    13   ar
    21    12    17    1
    22    13    37    1
    23    14    15    1
    24    14    25    2
    25    15    16    1
    26    15    38    1
    27    15    39    1
    28    16    17    1
    29    16    18    1
    30    16    40    1
    31    18    19   ar
    32    18    23   ar
    33    19    20   ar
    34    19    41    1
    35    20    21   ar
    36    20    42    1
    37    21    22   ar
    38    21    24    1
    39    22    23   ar
    40    22    43    1
    41    23    44    1
    42    24    45    1
    43    26    46    1
    44    27    47    1
    45    28    48    1
    46    29    49    1
    47    30    50    1
    48     1    31    1
    49     1    27    1
    50     2    32    1
    51     2    28    1
    52     4    34    1
    53     4    30    1
