@<TRIPOS>MOLECULE
*****
 50 53 0 0 0
SMALL
GASTEIGER

@<TRIPOS>ATOM
     1 C         -0.263215   -1.349603   1.697084 C.3        1 UNL1     0.1889
     2 C         -0.431437   -0.989357   0.196463 C.3        1 UNL1     0.1342
     3 C         -1.881731   -1.013152   -0.310041 C.3        1 UNL1     0.1174
     4 C         -2.72581   -2.101608   0.357724 C.3        1 UNL1     0.1456
     5 C         -2.545083   -2.133999   1.886335 C.3        1 UNL1     0.2326
     6 O         -1.168381   -2.316423   2.209263 O.3        1 UNL1     -0.3076
     7 O         -3.139453   -1.008306   2.557796 O.3        1 UNL1     -0.4605
     8 C         -3.629744   -1.25009   3.828498 C.ar        1 UNL1     0.1310
     9 C         -4.407704   -2.351639   4.200879 C.ar        1 UNL1     0.0226
     10 C         -4.843196   -2.51697   5.521074 C.ar        1 UNL1     0.1343
     11 C         -4.490935   -1.596208   6.50695 C.ar        1 UNL1     0.1007
     12 C         -3.748916   -0.470732   6.138854 C.ar        1 UNL1     0.1389
     13 C         -3.313382   -0.30335   4.810801 C.ar        1 UNL1     0.0229
     14 C         -4.852958   -1.765518   7.933283 C.2        1 UNL1     0.1740
     15 C         -4.205533   -0.803926   8.886033 C.3        1 UNL1     0.0520
     16 C         -4.186513   0.574759   8.240414 C.3        1 UNL1     0.1322
     17 O         -3.43841   0.552057   7.004738 O.3        1 UNL1     -0.4828
     18 C         -5.568365   1.224207   8.133531 C.ar        1 UNL1     -0.0067
     19 C         -5.741965   2.350271   7.302834 C.ar        1 UNL1     -0.0516
     20 C         -6.980872   2.99682   7.218899 C.ar        1 UNL1     -0.0198
     21 C         -8.049607   2.532538   7.964604 C.ar        1 UNL1     0.1169
     22 C         -7.91863   1.405839   8.765998 C.ar        1 UNL1     -0.0198
     23 C         -6.684745   0.748045   8.835927 C.ar        1 UNL1     -0.0516
     24 O         -9.230533   3.210532   7.886265 O.3        1 UNL1     -0.5068
     25 O         -5.56913   -2.674033   8.345817 O.2        1 UNL1     -0.2917
     26 O         -5.599997   -3.612556   5.818614 O.3        1 UNL1     -0.5058
     27 O         -0.17397   -0.215112   2.544287 O.3        1 UNL1     -0.3648
     28 O         0.31169   -1.941348   -0.587235 O.3        1 UNL1     -0.3841
     29 O         -2.473949   0.283785   -0.213276 O.3        1 UNL1     -0.3863
     30 O         -2.352022   -3.3883   -0.181159 O.3        1 UNL1     -0.3829
     31 H         0.713381   -1.836299   1.794386 H        1 UNL1     0.0937
     32 H         0.0   0.0   0.0 H        1 UNL1     0.0671
     33 H         -1.858022   -1.243658   -1.384297 H        1 UNL1     0.0649
     34 H         -3.785075   -1.950785   0.121901 H        1 UNL1     0.0683
     35 H         -3.068902   -3.047241   2.195335 H        1 UNL1     0.1085
     36 H         -4.667962   -3.131229   3.49333 H        1 UNL1     0.0691
     37 H         -2.737871   0.582138   4.549668 H        1 UNL1     0.0691
     38 H         -3.18927   -1.163356   9.079801 H        1 UNL1     0.0385
     39 H         -4.756884   -0.81035   9.832473 H        1 UNL1     0.0385
     40 H         -3.606163   1.233396   8.90065 H        1 UNL1     0.0789
     41 H         -4.9162   2.739668   6.714503 H        1 UNL1     0.0623
     42 H         -7.098951   3.871356   6.583874 H        1 UNL1     0.0654
     43 H         -8.753069   1.024796   9.342564 H        1 UNL1     0.0654
     44 H         -6.62111   -0.135365   9.463926 H        1 UNL1     0.0623
     45 H         -9.100456   4.09725   8.259799 H        1 UNL1     0.2921
     46 H         -5.185202   -4.10482   6.544585 H        1 UNL1     0.2922
     47 H         0.534648   0.371452   2.244849 H        1 UNL1     0.2126
     48 H         1.255201   -1.799061   -0.379213 H        1 UNL1     0.2101
     49 H         -2.069564   0.88054   -0.863006 H        1 UNL1     0.2100
     50 H         -2.627986   -3.413347   -1.120802 H        1 UNL1     0.2102
@<TRIPOS>BOND
     1     1     2    1
     2     1     6    1
     3     2     3    1
     4     3     4    1
     5     3    29    1
     6     3    33    1
     7     4     5    1
     8     5     6    1
     9     5     7    1
    10     5    35    1
    11     7     8    1
    12     8     9   ar
    13     8    13   ar
    14     9    10   ar
    15     9    36    1
    16    10    11   ar
    17    10    26    1
    18    11    12   ar
    19    11    14    1
    20    12    13   ar
    21    12    17    1
    22    13    37    1
    23    14    15    1
    24    14    25    2
    25    15    16    1
    26    15    38    1
    27    15    39    1
    28    16    17    1
    29    16    18    1
    30    16    40    1
    31    18    19   ar
    32    18    23   ar
    33    19    20   ar
    34    19    41    1
    35    20    21   ar
    36    20    42    1
    37    21    22   ar
    38    21    24    1
    39    22    23   ar
    40    22    43    1
    41    23    44    1
    42    24    45    1
    43    26    46    1
    44    27    47    1
    45    28    48    1
    46    29    49    1
    47    30    50    1
    48     1    31    1
    49     1    27    1
    50     2    32    1
    51     2    28    1
    52     4    34    1
    53     4    30    1
