@<TRIPOS>MOLECULE
*****
 50 53 0 0 0
SMALL
GASTEIGER

@<TRIPOS>ATOM
     1 C         -0.331457   -1.31895   1.709185 C.3        1 UNL1     0.1889
     2 C         -0.477815   -0.966142   0.20451 C.3        1 UNL1     0.1342
     3 C         -1.925992   -0.927234   -0.307089 C.3        1 UNL1     0.1174
     4 C         -2.822151   -1.968426   0.368141 C.3        1 UNL1     0.1456
     5 C         -2.648077   -1.994058   1.897652 C.3        1 UNL1     0.2326
     6 O         -1.282451   -2.237336   2.227425 O.3        1 UNL1     -0.3076
     7 O         -3.19138   -0.835243   2.555901 O.3        1 UNL1     -0.4605
     8 C         -3.686236   -1.038945   3.8315 C.ar        1 UNL1     0.1310
     9 C         -4.517148   -2.095635   4.219175 C.ar        1 UNL1     0.0226
     10 C         -4.953111   -2.22528   5.543196 C.ar        1 UNL1     0.1343
     11 C         -4.548957   -1.313786   6.51771 C.ar        1 UNL1     0.1007
     12 C         -3.752698   -0.231328   6.134254 C.ar        1 UNL1     0.1389
     13 C         -3.316632   -0.099716   4.802355 C.ar        1 UNL1     0.0229
     14 C         -4.911157   -1.45008   7.947531 C.2        1 UNL1     0.1740
     15 C         -4.210333   -0.513179   8.887006 C.3        1 UNL1     0.0520
     16 C         -4.12479   0.856183   8.227091 C.3        1 UNL1     0.1322
     17 O         -3.385721   0.782975   6.987943 O.3        1 UNL1     -0.4828
     18 C         -5.472381   1.574069   8.120503 C.ar        1 UNL1     -0.0067
     19 C         -5.851215   2.157375   6.893942 C.ar        1 UNL1     -0.0516
     20 C         -7.05514   2.861929   6.775076 C.ar        1 UNL1     -0.0198
     21 C         -7.883584   2.99624   7.874835 C.ar        1 UNL1     0.1169
     22 C         -7.55381   2.404579   9.087281 C.ar        1 UNL1     -0.0198
     23 C         -6.358747   1.68428   9.201523 C.ar        1 UNL1     -0.0516
     24 O         -9.029762   3.721513   7.731114 O.3        1 UNL1     -0.5068
     25 O         -5.670315   -2.316739   8.373049 O.2        1 UNL1     -0.2917
     26 O         -5.763006   -3.277845   5.855866 O.3        1 UNL1     -0.5058
     27 O         -0.192052   -0.181516   2.545604 O.3        1 UNL1     -0.3648
     28 O         0.222559   -1.959509   -0.567115 O.3        1 UNL1     -0.3841
     29 O         -2.457289   0.39683   -0.225167 O.3        1 UNL1     -0.3863
     30 O         -2.507137   -3.276445   -0.156781 O.3        1 UNL1     -0.3829
     31 H         0.621017   -1.849713   1.814835 H        1 UNL1     0.0937
     32 H         0.0   0.0   0.0 H        1 UNL1     0.0671
     33 H         -1.909605   -1.169237   -1.37895 H        1 UNL1     0.0649
     34 H         -3.872445   -1.770667   0.126949 H        1 UNL1     0.0683
     35 H         -3.21498   -2.878744   2.21361 H        1 UNL1     0.1085
     36 H         -4.820683   -2.868034   3.521044 H        1 UNL1     0.0691
     37 H         -2.698277   0.752636   4.529178 H        1 UNL1     0.0691
     38 H         -3.212609   -0.921941   9.079329 H        1 UNL1     0.0385
     39 H         -4.756004   -0.481989   9.836242 H        1 UNL1     0.0385
     40 H         -3.508001   1.491012   8.877541 H        1 UNL1     0.0789
     41 H         -5.213998   2.073899   6.018364 H        1 UNL1     0.0623
     42 H         -7.33047   3.317327   5.827016 H        1 UNL1     0.0654
     43 H         -8.202482   2.490772   9.950823 H        1 UNL1     0.0654
     44 H         -6.137816   1.226252   10.160817 H        1 UNL1     0.0623
     45 H         -8.789279   4.62991   7.486777 H        1 UNL1     0.2921
     46 H         -5.35897   -3.796024   6.569769 H        1 UNL1     0.2922
     47 H         0.554468   0.35975   2.253032 H        1 UNL1     0.2126
     48 H         1.163882   -1.897354   -0.31457 H        1 UNL1     0.2101
     49 H         -2.023125   0.967669   -0.878954 H        1 UNL1     0.2100
     50 H         -2.760118   -3.290499   -1.103098 H        1 UNL1     0.2102
@<TRIPOS>BOND
     1     1     2    1
     2     1     6    1
     3     2     3    1
     4     3     4    1
     5     3    29    1
     6     3    33    1
     7     4     5    1
     8     5     6    1
     9     5     7    1
    10     5    35    1
    11     7     8    1
    12     8     9   ar
    13     8    13   ar
    14     9    10   ar
    15     9    36    1
    16    10    11   ar
    17    10    26    1
    18    11    12   ar
    19    11    14    1
    20    12    13   ar
    21    12    17    1
    22    13    37    1
    23    14    15    1
    24    14    25    2
    25    15    16    1
    26    15    38    1
    27    15    39    1
    28    16    17    1
    29    16    18    1
    30    16    40    1
    31    18    19   ar
    32    18    23   ar
    33    19    20   ar
    34    19    41    1
    35    20    21   ar
    36    20    42    1
    37    21    22   ar
    38    21    24    1
    39    22    23   ar
    40    22    43    1
    41    23    44    1
    42    24    45    1
    43    26    46    1
    44    27    47    1
    45    28    48    1
    46    29    49    1
    47    30    50    1
    48     1    31    1
    49     1    27    1
    50     2    32    1
    51     2    28    1
    52     4    34    1
    53     4    30    1
