@<TRIPOS>MOLECULE
*****
 50 53 0 0 0
SMALL
GASTEIGER

@<TRIPOS>ATOM
     1 C         1.239981   0.439076   -1.743693 C.3        1 UNL1     0.1889
     2 C         -0.13405   0.368232   -1.024694 C.3        1 UNL1     0.1342
     3 C         -1.185527   -0.498035   -1.734935 C.3        1 UNL1     0.1174
     4 C         -1.075759   -0.433218   -3.260342 C.3        1 UNL1     0.1456
     5 C         0.373591   -0.591387   -3.755043 C.3        1 UNL1     0.2326
     6 O         1.201061   0.407318   -3.162802 O.3        1 UNL1     -0.3076
     7 O         0.892018   -1.924282   -3.593969 O.3        1 UNL1     -0.4605
     8 C         1.8064   -2.33823   -4.545851 C.ar        1 UNL1     0.1310
     9 C         1.550193   -2.462314   -5.915618 C.ar        1 UNL1     0.0226
     10 C         2.550191   -2.874285   -6.804542 C.ar        1 UNL1     0.1343
     11 C         3.838488   -3.149526   -6.348063 C.ar        1 UNL1     0.1007
     12 C         4.095472   -3.0688   -4.97685 C.ar        1 UNL1     0.1389
     13 C         3.089101   -2.657095   -4.0829 C.ar        1 UNL1     0.0229
     14 C         4.954517   -3.507375   -7.253921 C.2        1 UNL1     0.1740
     15 C         6.315063   -3.550072   -6.622542 C.3        1 UNL1     0.0520
     16 C         6.187559   -4.187678   -5.245895 C.3        1 UNL1     0.1322
     17 O         5.296567   -3.420848   -4.406148 O.3        1 UNL1     -0.4828
     18 C         5.886219   -5.687751   -5.287132 C.ar        1 UNL1     -0.0067
     19 C         5.931341   -6.436272   -4.093024 C.ar        1 UNL1     -0.0516
     20 C         5.707561   -7.818225   -4.102629 C.ar        1 UNL1     -0.0198
     21 C         5.445541   -8.46309   -5.298171 C.ar        1 UNL1     0.1169
     22 C         5.361486   -7.748003   -6.485785 C.ar        1 UNL1     -0.0198
     23 C         5.566986   -6.363199   -6.473831 C.ar        1 UNL1     -0.0516
     24 O         5.270289   -9.815529   -5.273779 O.3        1 UNL1     -0.5068
     25 O         4.81536   -3.683225   -8.461479 O.2        1 UNL1     -0.2917
     26 O         2.23513   -2.976238   -8.128146 O.3        1 UNL1     -0.5058
     27 O         2.196817   -0.471266   -1.225494 O.3        1 UNL1     -0.3648
     28 O         -0.669389   1.701442   -0.93158 O.3        1 UNL1     -0.3841
     29 O         -1.161627   -1.836447   -1.234719 O.3        1 UNL1     -0.3863
     30 O         -1.586431   0.837617   -3.718473 O.3        1 UNL1     -0.3829
     31 H         1.659002   1.426465   -1.521065 H        1 UNL1     0.0937
     32 H         0.0   0.0   0.0 H        1 UNL1     0.0671
     33 H         -2.177399   -0.105479   -1.470719 H        1 UNL1     0.0649
     34 H         -1.699582   -1.211556   -3.713592 H        1 UNL1     0.0683
     35 H         0.313945   -0.362019   -4.826356 H        1 UNL1     0.1085
     36 H         0.584938   -2.209376   -6.340383 H        1 UNL1     0.0691
     37 H         3.314341   -2.603382   -3.019944 H        1 UNL1     0.0691
     38 H         6.678237   -2.519475   -6.54837 H        1 UNL1     0.0385
     39 H         6.996305   -4.106665   -7.275147 H        1 UNL1     0.0385
     40 H         7.167494   -4.101463   -4.757208 H        1 UNL1     0.0789
     41 H         6.144087   -5.954949   -3.142909 H        1 UNL1     0.0623
     42 H         5.756825   -8.386215   -3.176901 H        1 UNL1     0.0654
     43 H         5.142047   -8.240715   -7.425461 H        1 UNL1     0.0654
     44 H         5.483344   -5.834593   -7.418513 H        1 UNL1     0.0623
     45 H         5.668854   -10.161784   -4.458935 H        1 UNL1     0.2921
     46 H         2.720839   -2.302095   -8.629175 H        1 UNL1     0.2922
     47 H         2.128814   -1.322884   -1.679346 H        1 UNL1     0.2126
     48 H         0.073775   2.284575   -0.683798 H        1 UNL1     0.2101
     49 H         -0.643017   -2.401698   -1.829133 H        1 UNL1     0.2100
     50 H         -1.972972   1.302752   -2.947793 H        1 UNL1     0.2102
@<TRIPOS>BOND
     1     1     2    1
     2     1     6    1
     3     2     3    1
     4     3     4    1
     5     3    29    1
     6     3    33    1
     7     4     5    1
     8     5     6    1
     9     5     7    1
    10     5    35    1
    11     7     8    1
    12     8     9   ar
    13     8    13   ar
    14     9    10   ar
    15     9    36    1
    16    10    11   ar
    17    10    26    1
    18    11    12   ar
    19    11    14    1
    20    12    13   ar
    21    12    17    1
    22    13    37    1
    23    14    15    1
    24    14    25    2
    25    15    16    1
    26    15    38    1
    27    15    39    1
    28    16    17    1
    29    16    18    1
    30    16    40    1
    31    18    19   ar
    32    18    23   ar
    33    19    20   ar
    34    19    41    1
    35    20    21   ar
    36    20    42    1
    37    21    22   ar
    38    21    24    1
    39    22    23   ar
    40    22    43    1
    41    23    44    1
    42    24    45    1
    43    26    46    1
    44    27    47    1
    45    28    48    1
    46    29    49    1
    47    30    50    1
    48     1    31    1
    49     1    27    1
    50     2    32    1
    51     2    28    1
    52     4    34    1
    53     4    30    1
