@<TRIPOS>MOLECULE
*****
 50 53 0 0 0
SMALL
GASTEIGER

@<TRIPOS>ATOM
     1 C         0.247533   -1.759094   1.270874 C.3        1 UNL1     0.1889
     2 C         -0.330835   -1.045821   0.019206 C.3        1 UNL1     0.1342
     3 C         -1.862506   -1.089008   -0.092968 C.3        1 UNL1     0.1174
     4 C         -2.460093   -2.393521   0.440188 C.3        1 UNL1     0.1456
     5 C         -1.872516   -2.797579   1.804686 C.3        1 UNL1     0.2326
     6 O         -0.454691   -2.913166   1.708359 O.3        1 UNL1     -0.3076
     7 O         -2.298908   -1.94925   2.886281 O.3        1 UNL1     -0.4605
     8 C         -2.409165   -2.55534   4.124838 C.ar        1 UNL1     0.1310
     9 C         -3.021766   -3.788634   4.371834 C.ar        1 UNL1     0.0226
     10 C         -3.067761   -4.328238   5.662808 C.ar        1 UNL1     0.1343
     11 C         -2.480729   -3.658111   6.735265 C.ar        1 UNL1     0.1007
     12 C         -1.902106   -2.406556   6.508134 C.ar        1 UNL1     0.1389
     13 C         -1.858315   -1.862974   5.210432 C.ar        1 UNL1     0.0229
     14 C         -2.426531   -4.221107   8.104298 C.2        1 UNL1     0.1740
     15 C         -1.566478   -3.473253   9.080297 C.3        1 UNL1     0.0520
     16 C         -1.766282   -1.981046   8.853682 C.3        1 UNL1     0.1322
     17 O         -1.391401   -1.611995   7.508194 O.3        1 UNL1     -0.4828
     18 C         -3.140771   -1.469843   9.292058 C.ar        1 UNL1     -0.0067
     19 C         -3.889816   -0.658421   8.41528 C.ar        1 UNL1     -0.0516
     20 C         -5.129177   -0.135325   8.802988 C.ar        1 UNL1     -0.0198
     21 C         -5.62591   -0.409659   10.064663 C.ar        1 UNL1     0.1169
     22 C         -4.927129   -1.232839   10.938116 C.ar        1 UNL1     -0.0198
     23 C         -3.696343   -1.771139   10.543839 C.ar        1 UNL1     -0.0516
     24 O         -6.818494   0.148187   10.420966 O.3        1 UNL1     -0.5068
     25 O         -2.974001   -5.272714   8.425052 O.2        1 UNL1     -0.2917
     26 O         -3.681047   -5.53458   5.836608 O.3        1 UNL1     -0.5058
     27 O         0.526184   -0.876589   2.3462 O.3        1 UNL1     -0.3648
     28 O         0.202916   -1.683061   -1.156268 O.3        1 UNL1     -0.3841
     29 O         -2.447381   0.071359   0.501678 O.3        1 UNL1     -0.3863
     30 O         -2.205094   -3.453376   -0.50711 O.3        1 UNL1     -0.3829
     31 H         1.229044   -2.150706   0.982161 H        1 UNL1     0.0937
     32 H         0.0   0.0   0.0 H        1 UNL1     0.0671
     33 H         -2.12237   -1.032862   -1.159288 H        1 UNL1     0.0649
     34 H         -3.547917   -2.297771   0.528912 H        1 UNL1     0.0683
     35 H         -2.264288   -3.808642   1.972455 H        1 UNL1     0.1085
     36 H         -3.446916   -4.384549   3.571675 H        1 UNL1     0.0691
     37 H         -1.403103   -0.886386   5.06026 H        1 UNL1     0.0691
     38 H         -0.526858   -3.764884   8.896803 H        1 UNL1     0.0385
     39 H         -1.832168   -3.776617   10.098706 H        1 UNL1     0.0385
     40 H         -1.043629   -1.456833   9.493598 H        1 UNL1     0.0789
     41 H         -3.517525   -0.42094   7.422983 H        1 UNL1     0.0623
     42 H         -5.69175   0.498812   8.122257 H        1 UNL1     0.0654
     43 H         -5.313949   -1.46639   11.922867 H        1 UNL1     0.0654
     44 H         -3.182515   -2.418785   11.247672 H        1 UNL1     0.0623
     45 H         -6.72803   1.114241   10.385302 H        1 UNL1     0.2921
     46 H         -3.059428   -6.157673   6.244967 H        1 UNL1     0.2922
     47 H         1.125256   -0.174437   2.05645 H        1 UNL1     0.2126
     48 H         1.172039   -1.567689   -1.121317 H        1 UNL1     0.2101
     49 H         -2.245039   0.854538   -0.034496 H        1 UNL1     0.2100
     50 H         -2.70124   -3.250646   -1.327142 H        1 UNL1     0.2102
@<TRIPOS>BOND
     1     1     2    1
     2     1     6    1
     3     2     3    1
     4     3     4    1
     5     3    29    1
     6     3    33    1
     7     4     5    1
     8     5     6    1
     9     5     7    1
    10     5    35    1
    11     7     8    1
    12     8     9   ar
    13     8    13   ar
    14     9    10   ar
    15     9    36    1
    16    10    11   ar
    17    10    26    1
    18    11    12   ar
    19    11    14    1
    20    12    13   ar
    21    12    17    1
    22    13    37    1
    23    14    15    1
    24    14    25    2
    25    15    16    1
    26    15    38    1
    27    15    39    1
    28    16    17    1
    29    16    18    1
    30    16    40    1
    31    18    19   ar
    32    18    23   ar
    33    19    20   ar
    34    19    41    1
    35    20    21   ar
    36    20    42    1
    37    21    22   ar
    38    21    24    1
    39    22    23   ar
    40    22    43    1
    41    23    44    1
    42    24    45    1
    43    26    46    1
    44    27    47    1
    45    28    48    1
    46    29    49    1
    47    30    50    1
    48     1    31    1
    49     1    27    1
    50     2    32    1
    51     2    28    1
    52     4    34    1
    53     4    30    1
