@<TRIPOS>MOLECULE
*****
 50 53 0 0 0
SMALL
GASTEIGER

@<TRIPOS>ATOM
     1 C         -0.335294   -1.344701   1.688243 C.3        1 UNL1     0.1889
     2 C         -0.46666   -0.975258   0.186179 C.3        1 UNL1     0.1342
     3 C         -1.908318   -0.950397   -0.344358 C.3        1 UNL1     0.1174
     4 C         -2.798427   -2.012459   0.305909 C.3        1 UNL1     0.1456
     5 C         -2.644347   -2.054703   1.837195 C.3        1 UNL1     0.2326
     6 O         -1.279892   -2.282795   2.182314 O.3        1 UNL1     -0.3076
     7 O         -3.212826   -0.911962   2.502248 O.3        1 UNL1     -0.4605
     8 C         -3.721634   -1.13851   3.76847 C.ar        1 UNL1     0.1310
     9 C         -4.542467   -2.211562   4.131917 C.ar        1 UNL1     0.0226
     10 C         -4.994094   -2.36384   5.448256 C.ar        1 UNL1     0.1343
     11 C         -4.61597   -1.45896   6.439243 C.ar        1 UNL1     0.1007
     12 C         -3.830207   -0.360685   6.079864 C.ar        1 UNL1     0.1389
     13 C         -3.378401   -0.206341   4.755674 C.ar        1 UNL1     0.0229
     14 C         -4.995159   -1.618164   7.862276 C.2        1 UNL1     0.1740
     15 C         -4.320318   -0.683262   8.822535 C.3        1 UNL1     0.0520
     16 C         -4.245556   0.695292   8.180697 C.3        1 UNL1     0.1322
     17 O         -3.489116   0.647968   6.950807 O.3        1 UNL1     -0.4828
     18 C         -5.601716   1.395379   8.064795 C.ar        1 UNL1     -0.0067
     19 C         -5.978836   1.975546   6.836219 C.ar        1 UNL1     -0.0516
     20 C         -7.191075   2.664231   6.709128 C.ar        1 UNL1     -0.0198
     21 C         -8.029658   2.785777   7.802669 C.ar        1 UNL1     0.1169
     22 C         -7.701372   2.196627   9.01674 C.ar        1 UNL1     -0.0198
     23 C         -6.49775   1.492088   9.139116 C.ar        1 UNL1     -0.0516
     24 O         -9.184241   3.495986   7.651199 O.3        1 UNL1     -0.5068
     25 O         -5.747464   -2.50068   8.266859 O.2        1 UNL1     -0.2917
     26 O         -5.792974   -3.431537   5.737044 O.3        1 UNL1     -0.5058
     27 O         -0.223257   -0.215932   2.540367 O.3        1 UNL1     -0.3648
     28 O         0.258006   -1.948952   -0.588085 O.3        1 UNL1     -0.3841
     29 O         -2.459491   0.36492   -0.253345 O.3        1 UNL1     -0.3863
     30 O         -2.457837   -3.30926   -0.230745 O.3        1 UNL1     -0.3829
     31 H         0.623167   -1.863258   1.800183 H        1 UNL1     0.0937
     32 H         0.0   0.0   0.0 H        1 UNL1     0.0671
     33 H         -1.874236   -1.178761   -1.418791 H        1 UNL1     0.0649
     34 H         -3.848137   -1.826537   0.053042 H        1 UNL1     0.0683
     35 H         -3.202721   -2.951165   2.134604 H        1 UNL1     0.1085
     36 H         -4.825648   -2.979399   3.420331 H        1 UNL1     0.0691
     37 H         -2.768692   0.657985   4.501334 H        1 UNL1     0.0691
     38 H         -3.319509   -1.080282   9.023242 H        1 UNL1     0.0385
     39 H         -4.878946   -0.671607   9.764649 H        1 UNL1     0.0385
     40 H         -3.646585   1.330595   8.847138 H        1 UNL1     0.0789
     41 H         -5.333856   1.901933   5.965453 H        1 UNL1     0.0623
     42 H         -7.465143   3.117434   5.759651 H        1 UNL1     0.0654
     43 H         -8.357749   2.272823   9.875386 H        1 UNL1     0.0654
     44 H         -6.278125   1.035514   10.099402 H        1 UNL1     0.0623
     45 H         -8.953988   4.407884   7.41007 H        1 UNL1     0.2921
     46 H         -5.39111   -3.952828   6.449907 H        1 UNL1     0.2922
     47 H         0.519289   0.339412   2.264541 H        1 UNL1     0.2126
     48 H         1.194908   -1.876685   -0.322144 H        1 UNL1     0.2101
     49 H         -2.024864   0.949932   -0.894169 H        1 UNL1     0.2100
     50 H         -2.697994   -3.315079   -1.180484 H        1 UNL1     0.2102
@<TRIPOS>BOND
     1     1     2    1
     2     1     6    1
     3     2     3    1
     4     3     4    1
     5     3    29    1
     6     3    33    1
     7     4     5    1
     8     5     6    1
     9     5     7    1
    10     5    35    1
    11     7     8    1
    12     8     9   ar
    13     8    13   ar
    14     9    10   ar
    15     9    36    1
    16    10    11   ar
    17    10    26    1
    18    11    12   ar
    19    11    14    1
    20    12    13   ar
    21    12    17    1
    22    13    37    1
    23    14    15    1
    24    14    25    2
    25    15    16    1
    26    15    38    1
    27    15    39    1
    28    16    17    1
    29    16    18    1
    30    16    40    1
    31    18    19   ar
    32    18    23   ar
    33    19    20   ar
    34    19    41    1
    35    20    21   ar
    36    20    42    1
    37    21    22   ar
    38    21    24    1
    39    22    23   ar
    40    22    43    1
    41    23    44    1
    42    24    45    1
    43    26    46    1
    44    27    47    1
    45    28    48    1
    46    29    49    1
    47    30    50    1
    48     1    31    1
    49     1    27    1
    50     2    32    1
    51     2    28    1
    52     4    34    1
    53     4    30    1
