@<TRIPOS>MOLECULE
*****
 50 53 0 0 0
SMALL
GASTEIGER

@<TRIPOS>ATOM
     1 C         -0.324905   -1.338726   1.695008 C.3        1 UNL1     0.1889
     2 C         -0.461559   -0.976629   0.191628 C.3        1 UNL1     0.1342
     3 C         -1.904561   -0.961007   -0.335597 C.3        1 UNL1     0.1174
     4 C         -2.78806   -2.024382   0.321502 C.3        1 UNL1     0.1456
     5 C         -2.630186   -2.059049   1.852593 C.3        1 UNL1     0.2326
     6 O         -1.263851   -2.279094   2.195492 O.3        1 UNL1     -0.3076
     7 O         -3.202552   -0.916069   2.513891 O.3        1 UNL1     -0.4605
     8 C         -3.707299   -1.13938   3.782311 C.ar        1 UNL1     0.1310
     9 C         -4.522143   -2.214696   4.152481 C.ar        1 UNL1     0.0226
     10 C         -4.969947   -2.363241   5.470551 C.ar        1 UNL1     0.1343
     11 C         -4.593823   -1.45215   6.456596 C.ar        1 UNL1     0.1007
     12 C         -3.814159   -0.351761   6.090467 C.ar        1 UNL1     0.1389
     13 C         -3.366205   -0.201184   4.764535 C.ar        1 UNL1     0.0229
     14 C         -4.968906   -1.6068   7.881219 C.2        1 UNL1     0.1740
     15 C         -4.296285   -0.664412   8.835701 C.3        1 UNL1     0.0520
     16 C         -4.229613   0.711601   8.18755 C.3        1 UNL1     0.1322
     17 O         -3.475844   0.662387   6.956095 O.3        1 UNL1     -0.4828
     18 C         -5.589368   1.404694   8.071742 C.ar        1 UNL1     -0.0067
     19 C         -5.972138   1.977563   6.841489 C.ar        1 UNL1     -0.0516
     20 C         -7.187946   2.65989   6.714202 C.ar        1 UNL1     -0.0198
     21 C         -8.024531   2.782324   7.809173 C.ar        1 UNL1     0.1169
     22 C         -7.690586   2.200175   9.025077 C.ar        1 UNL1     -0.0198
     23 C         -6.483329   1.501932   9.147741 C.ar        1 UNL1     -0.0516
     24 O         -9.182844   3.48634   7.657275 O.3        1 UNL1     -0.5068
     25 O         -5.716037   -2.491073   8.291512 O.2        1 UNL1     -0.2917
     26 O         -5.76304   -3.43343   5.765986 O.3        1 UNL1     -0.5058
     27 O         -0.21626   -0.20564   2.541825 O.3        1 UNL1     -0.3648
     28 O         0.265928   -1.950309   -0.580002 O.3        1 UNL1     -0.3841
     29 O         -2.461793   0.352062   -0.249142 O.3        1 UNL1     -0.3863
     30 O         -2.442543   -3.32193   -0.210172 O.3        1 UNL1     -0.3829
     31 H         0.636281   -1.852206   1.806988 H        1 UNL1     0.0937
     32 H         0.0   0.0   0.0 H        1 UNL1     0.0671
     33 H         -1.871911   -1.194005   -1.40908 H        1 UNL1     0.0649
     34 H         -3.839237   -1.844595   0.070297 H        1 UNL1     0.0683
     35 H         -3.183574   -2.956824   2.155316 H        1 UNL1     0.1085
     36 H         -4.803324   -2.987045   3.444996 H        1 UNL1     0.0691
     37 H         -2.761229   0.664892   4.504902 H        1 UNL1     0.0691
     38 H         -3.293123   -1.055758   9.035804 H        1 UNL1     0.0385
     39 H         -4.852748   -0.651209   9.779074 H        1 UNL1     0.0385
     40 H         -3.63212   1.352722   8.849733 H        1 UNL1     0.0789
     41 H         -5.328859   1.903134   5.969535 H        1 UNL1     0.0623
     42 H         -7.466403   3.107535   5.763366 H        1 UNL1     0.0654
     43 H         -8.345302   2.277079   9.884927 H        1 UNL1     0.0654
     44 H         -6.259273   1.050705   10.109529 H        1 UNL1     0.0623
     45 H         -8.957595   4.397517   7.408809 H        1 UNL1     0.2921
     46 H         -5.357019   -3.94961   6.480211 H        1 UNL1     0.2922
     47 H         0.523829   0.351286   2.26261 H        1 UNL1     0.2126
     48 H         1.200911   -1.882169   -0.306329 H        1 UNL1     0.2101
     49 H         -2.025719   0.93833   -0.887831 H        1 UNL1     0.2100
     50 H         -2.679684   -3.331202   -1.16064 H        1 UNL1     0.2102
@<TRIPOS>BOND
     1     1     2    1
     2     1     6    1
     3     2     3    1
     4     3     4    1
     5     3    29    1
     6     3    33    1
     7     4     5    1
     8     5     6    1
     9     5     7    1
    10     5    35    1
    11     7     8    1
    12     8     9   ar
    13     8    13   ar
    14     9    10   ar
    15     9    36    1
    16    10    11   ar
    17    10    26    1
    18    11    12   ar
    19    11    14    1
    20    12    13   ar
    21    12    17    1
    22    13    37    1
    23    14    15    1
    24    14    25    2
    25    15    16    1
    26    15    38    1
    27    15    39    1
    28    16    17    1
    29    16    18    1
    30    16    40    1
    31    18    19   ar
    32    18    23   ar
    33    19    20   ar
    34    19    41    1
    35    20    21   ar
    36    20    42    1
    37    21    22   ar
    38    21    24    1
    39    22    23   ar
    40    22    43    1
    41    23    44    1
    42    24    45    1
    43    26    46    1
    44    27    47    1
    45    28    48    1
    46    29    49    1
    47    30    50    1
    48     1    31    1
    49     1    27    1
    50     2    32    1
    51     2    28    1
    52     4    34    1
    53     4    30    1
