@<TRIPOS>MOLECULE
*****
 50 53 0 0 0
SMALL
GASTEIGER

@<TRIPOS>ATOM
     1 C         -0.33873   -1.331202   1.698225 C.3        1 UNL1     0.1889
     2 C         -0.465979   -0.974301   0.192778 C.3        1 UNL1     0.1342
     3 C         -1.906041   -0.955684   -0.342331 C.3        1 UNL1     0.1174
     4 C         -2.796773   -2.01352   0.313942 C.3        1 UNL1     0.1456
     5 C         -2.647318   -2.042964   1.845986 C.3        1 UNL1     0.2326
     6 O         -1.283634   -2.266431   2.197123 O.3        1 UNL1     -0.3076
     7 O         -3.219286   -0.895532   2.499877 O.3        1 UNL1     -0.4605
     8 C         -3.731671   -1.112319   3.766366 C.ar        1 UNL1     0.1310
     9 C         -4.552238   -2.183414   4.136132 C.ar        1 UNL1     0.0226
     10 C         -5.007688   -2.325446   5.452298 C.ar        1 UNL1     0.1343
     11 C         -4.633751   -1.411952   6.43695 C.ar        1 UNL1     0.1007
     12 C         -3.848299   -0.315647   6.070938 C.ar        1 UNL1     0.1389
     13 C         -3.392647   -0.171614   4.746904 C.ar        1 UNL1     0.0229
     14 C         -5.017081   -1.559938   7.860085 C.2        1 UNL1     0.1740
     15 C         -4.346373   -0.616289   8.814667 C.3        1 UNL1     0.0520
     16 C         -4.271413   0.757035   8.161734 C.3        1 UNL1     0.1322
     17 O         -3.511159   0.700581   6.934584 O.3        1 UNL1     -0.4828
     18 C         -5.628106   1.454376   8.035946 C.ar        1 UNL1     -0.0067
     19 C         -6.0034   2.021477   6.800728 C.ar        1 UNL1     -0.0516
     20 C         -7.216138   2.707464   6.664155 C.ar        1 UNL1     -0.0198
     21 C         -8.057045   2.839291   7.754717 C.ar        1 UNL1     0.1169
     22 C         -7.730545   2.263004   8.975425 C.ar        1 UNL1     -0.0198
     23 C         -6.526398   1.561107   9.107429 C.ar        1 UNL1     -0.0516
     24 O         -9.212101   3.546615   7.59366 O.3        1 UNL1     -0.5068
     25 O         -5.769491   -2.440075   8.269626 O.2        1 UNL1     -0.2917
     26 O         -5.806082   -3.391771   5.747432 O.3        1 UNL1     -0.5058
     27 O         -0.23074   -0.195316   2.541366 O.3        1 UNL1     -0.3648
     28 O         0.262293   -1.953387   -0.571235 O.3        1 UNL1     -0.3841
     29 O         -2.45917   0.359617   -0.263826 O.3        1 UNL1     -0.3863
     30 O         -2.452889   -3.314247   -0.210981 O.3        1 UNL1     -0.3829
     31 H         0.620046   -1.847571   1.817347 H        1 UNL1     0.0937
     32 H         0.0   0.0   0.0 H        1 UNL1     0.0671
     33 H         -1.868385   -1.192835   -1.414741 H        1 UNL1     0.0649
     34 H         -3.845943   -1.831053   0.056359 H        1 UNL1     0.0683
     35 H         -3.205452   -2.937676   2.149062 H        1 UNL1     0.1085
     36 H         -4.832261   -2.957448   3.430031 H        1 UNL1     0.0691
     37 H         -2.783269   0.691385   4.487316 H        1 UNL1     0.0691
     38 H         -3.345675   -1.010339   9.02168 H        1 UNL1     0.0385
     39 H         -4.907891   -0.597611   9.754948 H        1 UNL1     0.0385
     40 H         -3.675294   1.398579   8.824745 H        1 UNL1     0.0789
     41 H         -5.356595   1.93965   5.932052 H        1 UNL1     0.0623
     42 H         -7.488799   3.150588   5.70953 H        1 UNL1     0.0654
     43 H         -8.388726   2.347277   9.831933 H        1 UNL1     0.0654
     44 H         -6.308197   1.114662   10.072789 H        1 UNL1     0.0623
     45 H         -8.982593   4.454016   7.335463 H        1 UNL1     0.2921
     46 H         -5.405042   -3.907433   6.464838 H        1 UNL1     0.2922
     47 H         0.514466   0.356575   2.265789 H        1 UNL1     0.2126
     48 H         1.195048   -1.891353   -0.288653 H        1 UNL1     0.2101
     49 H         -2.017489   0.942009   -0.902209 H        1 UNL1     0.2100
     50 H         -2.684908   -3.32628   -1.162682 H        1 UNL1     0.2102
@<TRIPOS>BOND
     1     1     2    1
     2     1     6    1
     3     2     3    1
     4     3     4    1
     5     3    29    1
     6     3    33    1
     7     4     5    1
     8     5     6    1
     9     5     7    1
    10     5    35    1
    11     7     8    1
    12     8     9   ar
    13     8    13   ar
    14     9    10   ar
    15     9    36    1
    16    10    11   ar
    17    10    26    1
    18    11    12   ar
    19    11    14    1
    20    12    13   ar
    21    12    17    1
    22    13    37    1
    23    14    15    1
    24    14    25    2
    25    15    16    1
    26    15    38    1
    27    15    39    1
    28    16    17    1
    29    16    18    1
    30    16    40    1
    31    18    19   ar
    32    18    23   ar
    33    19    20   ar
    34    19    41    1
    35    20    21   ar
    36    20    42    1
    37    21    22   ar
    38    21    24    1
    39    22    23   ar
    40    22    43    1
    41    23    44    1
    42    24    45    1
    43    26    46    1
    44    27    47    1
    45    28    48    1
    46    29    49    1
    47    30    50    1
    48     1    31    1
    49     1    27    1
    50     2    32    1
    51     2    28    1
    52     4    34    1
    53     4    30    1
