@<TRIPOS>MOLECULE
*****
 50 53 0 0 0
SMALL
GASTEIGER

@<TRIPOS>ATOM
     1 C         -0.364793   -1.344479   1.682293 C.3        1 UNL1     0.1889
     2 C         -0.479707   -0.970053   0.180114 C.3        1 UNL1     0.1342
     3 C         -1.916667   -0.926799   -0.361863 C.3        1 UNL1     0.1174
     4 C         -2.824533   -1.979669   0.278731 C.3        1 UNL1     0.1456
     5 C         -2.683249   -2.027257   1.811095 C.3        1 UNL1     0.2326
     6 O         -1.324416   -2.272382   2.166559 O.3        1 UNL1     -0.3076
     7 O         -3.243407   -0.879352   2.474312 O.3        1 UNL1     -0.4605
     8 C         -3.765011   -1.102725   3.735883 C.ar        1 UNL1     0.1310
     9 C         -4.601439   -2.166751   4.090196 C.ar        1 UNL1     0.0226
     10 C         -5.065385   -2.316656   5.402516 C.ar        1 UNL1     0.1343
     11 C         -4.684481   -1.41862   6.398652 C.ar        1 UNL1     0.1007
     12 C         -3.882852   -0.328965   6.048187 C.ar        1 UNL1     0.1389
     13 C         -3.418639   -0.176979   4.728022 C.ar        1 UNL1     0.0229
     14 C         -5.076934   -1.576558   7.818225 C.2        1 UNL1     0.1740
     15 C         -4.398741   -0.651968   8.786077 C.3        1 UNL1     0.0520
     16 C         -4.30244   0.727065   8.148151 C.3        1 UNL1     0.1322
     17 O         -3.536779   0.673553   6.924235 O.3        1 UNL1     -0.4828
     18 C         -5.649202   1.443525   8.02309 C.ar        1 UNL1     -0.0067
     19 C         -6.009531   2.030961   6.792929 C.ar        1 UNL1     -0.0516
     20 C         -7.212434   2.734331   6.657801 C.ar        1 UNL1     -0.0198
     21 C         -8.058252   2.863352   7.744895 C.ar        1 UNL1     0.1169
     22 C         -7.746742   2.267549   8.960139 C.ar        1 UNL1     -0.0198
     23 C         -6.552607   1.54844   9.090445 C.ar        1 UNL1     -0.0516
     24 O         -9.203052   3.587614   7.585902 O.3        1 UNL1     -0.5068
     25 O         -5.842906   -2.450973   8.214675 O.2        1 UNL1     -0.2917
     26 O         -5.879201   -3.375417   5.682361 O.3        1 UNL1     -0.5058
     27 O         -0.246171   -0.219082   2.537979 O.3        1 UNL1     -0.3648
     28 O         0.239509   -1.950534   -0.590658 O.3        1 UNL1     -0.3841
     29 O         -2.452865   0.39478   -0.272116 O.3        1 UNL1     -0.3863
     30 O         -2.495103   -3.279201   -0.258281 O.3        1 UNL1     -0.3829
     31 H         0.586503   -1.874674   1.800649 H        1 UNL1     0.0937
     32 H         0.0   0.0   0.0 H        1 UNL1     0.0671
     33 H         -1.87669   -1.153088   -1.436533 H        1 UNL1     0.0649
     34 H         -3.869896   -1.780673   0.01793 H        1 UNL1     0.0683
     35 H         -3.254615   -2.917682   2.10189 H        1 UNL1     0.1085
     36 H         -4.888019   -2.929526   3.374538 H        1 UNL1     0.0691
     37 H         -2.796671   0.680602   4.480627 H        1 UNL1     0.0691
     38 H         -3.404367   -1.061344   8.993824 H        1 UNL1     0.0385
     39 H         -4.964726   -0.635819   9.723722 H        1 UNL1     0.0385
     40 H         -3.701317   1.353656   8.820873 H        1 UNL1     0.0789
     41 H         -5.358512   1.951666   5.927171 H        1 UNL1     0.0623
     42 H         -7.473469   3.192944   5.707251 H        1 UNL1     0.0654
     43 H         -8.409031   2.349592   9.813693 H        1 UNL1     0.0654
     44 H         -6.346136   1.087081   10.051362 H        1 UNL1     0.0623
     45 H         -8.960105   4.496553   7.346062 H        1 UNL1     0.2921
     46 H         -5.489295   -3.903093   6.397165 H        1 UNL1     0.2922
     47 H         0.505116   0.328005   2.269422 H        1 UNL1     0.2126
     48 H         1.174566   -1.892003   -0.315023 H        1 UNL1     0.2101
     49 H         -2.000461   0.977965   -0.90221 H        1 UNL1     0.2100
     50 H         -2.727689   -3.279981   -1.209919 H        1 UNL1     0.2102
@<TRIPOS>BOND
     1     1     2    1
     2     1     6    1
     3     2     3    1
     4     3     4    1
     5     3    29    1
     6     3    33    1
     7     4     5    1
     8     5     6    1
     9     5     7    1
    10     5    35    1
    11     7     8    1
    12     8     9   ar
    13     8    13   ar
    14     9    10   ar
    15     9    36    1
    16    10    11   ar
    17    10    26    1
    18    11    12   ar
    19    11    14    1
    20    12    13   ar
    21    12    17    1
    22    13    37    1
    23    14    15    1
    24    14    25    2
    25    15    16    1
    26    15    38    1
    27    15    39    1
    28    16    17    1
    29    16    18    1
    30    16    40    1
    31    18    19   ar
    32    18    23   ar
    33    19    20   ar
    34    19    41    1
    35    20    21   ar
    36    20    42    1
    37    21    22   ar
    38    21    24    1
    39    22    23   ar
    40    22    43    1
    41    23    44    1
    42    24    45    1
    43    26    46    1
    44    27    47    1
    45    28    48    1
    46    29    49    1
    47    30    50    1
    48     1    31    1
    49     1    27    1
    50     2    32    1
    51     2    28    1
    52     4    34    1
    53     4    30    1
