@<TRIPOS>MOLECULE
*****
 50 53 0 0 0
SMALL
GASTEIGER

@<TRIPOS>ATOM
     1 C         1.840655   1.109249   -0.390334 C.3        1 UNL1     0.1889
     2 C         0.938846   -0.144361   -0.548899 C.3        1 UNL1     0.1342
     3 C         1.586676   -1.461771   -0.095898 C.3        1 UNL1     0.1174
     4 C         3.091079   -1.509903   -0.374416 C.3        1 UNL1     0.1456
     5 C         3.812845   -0.220383   0.057506 C.3        1 UNL1     0.2326
     6 O         3.23066   0.904867   -0.596512 O.3        1 UNL1     -0.3076
     7 O         3.899324   -0.062688   1.485433 O.3        1 UNL1     -0.4605
     8 C         3.644164   -1.195631   2.237005 C.ar        1 UNL1     0.1310
     9 C         3.95023   -1.35452   3.592874 C.ar        1 UNL1     0.0226
     10 C         3.635467   -2.537532   4.272072 C.ar        1 UNL1     0.1343
     11 C         2.984868   -3.582311   3.617092 C.ar        1 UNL1     0.1007
     12 C         2.710987   -3.45135   2.253046 C.ar        1 UNL1     0.1389
     13 C         3.029961   -2.262768   1.569702 C.ar        1 UNL1     0.0229
     14 C         2.553813   -4.820596   4.306292 C.2        1 UNL1     0.1740
     15 C         1.674615   -5.73642   3.5064 C.3        1 UNL1     0.0520
     16 C         2.194734   -5.775841   2.076057 C.3        1 UNL1     0.1322
     17 O         2.171766   -4.457565   1.485557 O.3        1 UNL1     -0.4828
     18 C         3.526105   -6.515617   1.924713 C.ar        1 UNL1     -0.0067
     19 C         4.12592   -6.608622   0.652005 C.ar        1 UNL1     -0.0516
     20 C         5.318941   -7.318302   0.470299 C.ar        1 UNL1     -0.0198
     21 C         5.916767   -7.944178   1.549517 C.ar        1 UNL1     0.1169
     22 C         5.367939   -7.842505   2.821244 C.ar        1 UNL1     -0.0198
     23 C         4.184753   -7.117399   3.00658 C.ar        1 UNL1     -0.0516
     24 O         7.057623   -8.657937   1.327264 O.3        1 UNL1     -0.5068
     25 O         2.817041   -5.067611   5.480251 O.2        1 UNL1     -0.2917
     26 O         3.961854   -2.62936   5.59367 O.3        1 UNL1     -0.5058
     27 O         1.589518   1.839464   0.799836 O.3        1 UNL1     -0.3648
     28 O         0.600492   -0.289742   -1.940692 O.3        1 UNL1     -0.3841
     29 O         1.267261   -1.740935   1.268717 O.3        1 UNL1     -0.3863
     30 O         3.304882   -1.709981   -1.788611 O.3        1 UNL1     -0.3829
     31 H         1.561314   1.799242   -1.194049 H        1 UNL1     0.0937
     32 H         0.0   0.0   0.0 H        1 UNL1     0.0671
     33 H         1.130034   -2.276533   -0.675002 H        1 UNL1     0.0649
     34 H         3.539802   -2.365775   0.14185 H        1 UNL1     0.0683
     35 H         4.825932   -0.335884   -0.3477 H        1 UNL1     0.1085
     36 H         4.40511   -0.558296   4.171866 H        1 UNL1     0.0691
     37 H         2.8073   -2.186283   0.507598 H        1 UNL1     0.0691
     38 H         0.656186   -5.335412   3.545412 H        1 UNL1     0.0385
     39 H         1.67008   -6.727502   3.972786 H        1 UNL1     0.0385
     40 H         1.472063   -6.35421   1.484656 H        1 UNL1     0.0789
     41 H         3.67152   -6.133874   -0.212741 H        1 UNL1     0.0623
     42 H         5.765339   -7.392753   -0.518234 H        1 UNL1     0.0654
     43 H         5.835863   -8.316114   3.676026 H        1 UNL1     0.0654
     44 H         3.789587   -7.04986   4.015602 H        1 UNL1     0.0623
     45 H         7.8089   -8.152175   1.677271 H        1 UNL1     0.2921
     46 H         4.767702   -3.16078   5.691724 H        1 UNL1     0.2922
     47 H         1.150901   1.275723   1.45227 H        1 UNL1     0.2126
     48 H         1.431383   -0.496413   -2.410414 H        1 UNL1     0.2101
     49 H         0.780374   -2.578249   1.32905 H        1 UNL1     0.2100
     50 H         3.00909   -2.616558   -2.012971 H        1 UNL1     0.2102
@<TRIPOS>BOND
     1     1     2    1
     2     1     6    1
     3     2     3    1
     4     3     4    1
     5     3    29    1
     6     3    33    1
     7     4     5    1
     8     5     6    1
     9     5     7    1
    10     5    35    1
    11     7     8    1
    12     8     9   ar
    13     8    13   ar
    14     9    10   ar
    15     9    36    1
    16    10    11   ar
    17    10    26    1
    18    11    12   ar
    19    11    14    1
    20    12    13   ar
    21    12    17    1
    22    13    37    1
    23    14    15    1
    24    14    25    2
    25    15    16    1
    26    15    38    1
    27    15    39    1
    28    16    17    1
    29    16    18    1
    30    16    40    1
    31    18    19   ar
    32    18    23   ar
    33    19    20   ar
    34    19    41    1
    35    20    21   ar
    36    20    42    1
    37    21    22   ar
    38    21    24    1
    39    22    23   ar
    40    22    43    1
    41    23    44    1
    42    24    45    1
    43    26    46    1
    44    27    47    1
    45    28    48    1
    46    29    49    1
    47    30    50    1
    48     1    31    1
    49     1    27    1
    50     2    32    1
    51     2    28    1
    52     4    34    1
    53     4    30    1
