@<TRIPOS>MOLECULE
*****
 50 53 0 0 0
SMALL
GASTEIGER

@<TRIPOS>ATOM
     1 C         -0.322211   -1.337225   1.696707 C.3        1 UNL1     0.1889
     2 C         -0.459782   -0.977215   0.192909 C.3        1 UNL1     0.1342
     3 C         -1.902904   -0.964814   -0.334072 C.3        1 UNL1     0.1174
     4 C         -2.784386   -2.028957   0.324491 C.3        1 UNL1     0.1456
     5 C         -2.626174   -2.061465   1.855594 C.3        1 UNL1     0.2326
     6 O         -1.259388   -2.278651   2.198514 O.3        1 UNL1     -0.3076
     7 O         -3.20046   -0.918698   2.515595 O.3        1 UNL1     -0.4605
     8 C         -3.70458   -1.141353   3.78438 C.ar        1 UNL1     0.1310
     9 C         -4.517437   -2.217666   4.156016 C.ar        1 UNL1     0.0226
     10 C         -4.964738   -2.365394   5.474348 C.ar        1 UNL1     0.1343
     11 C         -4.590063   -1.452426   6.459208 C.ar        1 UNL1     0.1007
     12 C         -3.812429   -0.351097   6.091588 C.ar        1 UNL1     0.1389
     13 C         -3.364983   -0.201348   4.765391 C.ar        1 UNL1     0.0229
     14 C         -4.964612   -1.605998   7.884088 C.2        1 UNL1     0.1740
     15 C         -4.293502   -0.661242   8.837291 C.3        1 UNL1     0.0520
     16 C         -4.229402   0.714092   8.187442 C.3        1 UNL1     0.1322
     17 O         -3.475768   0.664713   6.955911 O.3        1 UNL1     -0.4828
     18 C         -5.590413   1.404616   8.071032 C.ar        1 UNL1     -0.0067
     19 C         -5.974818   1.974475   6.839892 C.ar        1 UNL1     -0.0516
     20 C         -7.191869   2.654459   6.711947 C.ar        1 UNL1     -0.0198
     21 C         -8.028088   2.777539   7.807126 C.ar        1 UNL1     0.1169
     22 C         -7.692498   2.198287   9.023961 C.ar        1 UNL1     -0.0198
     23 C         -6.483974   1.502364   9.147317 C.ar        1 UNL1     -0.0516
     24 O         -9.187694   3.479264   7.654499 O.3        1 UNL1     -0.5068
     25 O         -5.710091   -2.491099   8.295601 O.2        1 UNL1     -0.2917
     26 O         -5.755867   -3.436634   5.77124 O.3        1 UNL1     -0.5058
     27 O         -0.215435   -0.202909   2.542115 O.3        1 UNL1     -0.3648
     28 O         0.269303   -1.950541   -0.57766 O.3        1 UNL1     -0.3841
     29 O         -2.462462   0.347364   -0.249125 O.3        1 UNL1     -0.3863
     30 O         -2.43665   -3.326537   -0.205655 O.3        1 UNL1     -0.3829
     31 H         0.63991   -1.848851   1.809141 H        1 UNL1     0.0937
     32 H         0.0   0.0   0.0 H        1 UNL1     0.0671
     33 H         -1.870032   -1.199069   -1.407275 H        1 UNL1     0.0649
     34 H         -3.835927   -1.851354   0.073257 H        1 UNL1     0.0683
     35 H         -3.177905   -2.959854   2.159518 H        1 UNL1     0.1085
     36 H         -4.797367   -2.991383   3.44953 H        1 UNL1     0.0691
     37 H         -2.7616   0.665487   4.504587 H        1 UNL1     0.0691
     38 H         -3.289608   -1.050553   9.037691 H        1 UNL1     0.0385
     39 H         -4.849819   -0.647875   9.780749 H        1 UNL1     0.0385
     40 H         -3.632935   1.357089   8.84873 H        1 UNL1     0.0789
     41 H         -5.331871   1.899492   5.967741 H        1 UNL1     0.0623
     42 H         -7.471598   3.099808   5.760408 H        1 UNL1     0.0654
     43 H         -8.346894   2.275702   9.884009 H        1 UNL1     0.0654
     44 H         -6.258633   1.05336   10.109845 H        1 UNL1     0.0623
     45 H         -8.964323   4.38888   7.398722 H        1 UNL1     0.2921
     46 H         -5.348109   -3.951984   6.485074 H        1 UNL1     0.2922
     47 H         0.525312   0.353577   2.263769 H        1 UNL1     0.2126
     48 H         1.203293   -1.884322   -0.300152 H        1 UNL1     0.2101
     49 H         -2.02743   0.933669   -0.888491 H        1 UNL1     0.2100
     50 H         -2.673946   -3.337397   -1.156068 H        1 UNL1     0.2102
@<TRIPOS>BOND
     1     1     2    1
     2     1     6    1
     3     2     3    1
     4     3     4    1
     5     3    29    1
     6     3    33    1
     7     4     5    1
     8     5     6    1
     9     5     7    1
    10     5    35    1
    11     7     8    1
    12     8     9   ar
    13     8    13   ar
    14     9    10   ar
    15     9    36    1
    16    10    11   ar
    17    10    26    1
    18    11    12   ar
    19    11    14    1
    20    12    13   ar
    21    12    17    1
    22    13    37    1
    23    14    15    1
    24    14    25    2
    25    15    16    1
    26    15    38    1
    27    15    39    1
    28    16    17    1
    29    16    18    1
    30    16    40    1
    31    18    19   ar
    32    18    23   ar
    33    19    20   ar
    34    19    41    1
    35    20    21   ar
    36    20    42    1
    37    21    22   ar
    38    21    24    1
    39    22    23   ar
    40    22    43    1
    41    23    44    1
    42    24    45    1
    43    26    46    1
    44    27    47    1
    45    28    48    1
    46    29    49    1
    47    30    50    1
    48     1    31    1
    49     1    27    1
    50     2    32    1
    51     2    28    1
    52     4    34    1
    53     4    30    1
