@<TRIPOS>MOLECULE
*****
 50 53 0 0 0
SMALL
GASTEIGER

@<TRIPOS>ATOM
     1 C         -1.19023   -1.746864   0.55011 C.3        1 UNL1     0.1889
     2 C         -0.348786   -0.929563   -0.466714 C.3        1 UNL1     0.1342
     3 C         -1.07755   -0.590164   -1.77598 C.3        1 UNL1     0.1174
     4 C         -2.035272   -1.6962   -2.226059 C.3        1 UNL1     0.1456
     5 C         -2.919504   -2.214828   -1.077354 C.3        1 UNL1     0.2326
     6 O         -2.101459   -2.68246   -0.007312 O.3        1 UNL1     -0.3076
     7 O         -3.920573   -1.27155   -0.653786 O.3        1 UNL1     -0.4605
     8 C         -3.971783   -0.083573   -1.360621 C.ar        1 UNL1     0.1310
     9 C         -2.887594   0.770458   -1.589673 C.ar        1 UNL1     0.0226
     10 C         -3.037277   1.946276   -2.334622 C.ar        1 UNL1     0.1343
     11 C         -4.2708   2.284835   -2.889274 C.ar        1 UNL1     0.1007
     12 C         -5.370022   1.460965   -2.632891 C.ar        1 UNL1     0.1389
     13 C         -5.219839   0.280105   -1.881595 C.ar        1 UNL1     0.0229
     14 C         -4.46637   3.471137   -3.754488 C.2        1 UNL1     0.1740
     15 C         -5.796172   3.559794   -4.443919 C.3        1 UNL1     0.0520
     16 C         -6.875979   3.115558   -3.466868 C.3        1 UNL1     0.1322
     17 O         -6.651324   1.754279   -3.038477 O.3        1 UNL1     -0.4828
     18 C         -7.121169   4.107058   -2.326897 C.ar        1 UNL1     -0.0067
     19 C         -8.34034   4.81346   -2.273677 C.ar        1 UNL1     -0.0516
     20 C         -8.577756   5.762044   -1.271786 C.ar        1 UNL1     -0.0198
     21 C         -7.603295   6.018054   -0.323782 C.ar        1 UNL1     0.1169
     22 C         -6.405845   5.314554   -0.330146 C.ar        1 UNL1     -0.0198
     23 C         -6.175513   4.352694   -1.321018 C.ar        1 UNL1     -0.0516
     24 O         -7.855189   6.975764   0.614163 O.3        1 UNL1     -0.5068
     25 O         -3.587052   4.299955   -3.974366 O.2        1 UNL1     -0.2917
     26 O         -1.940634   2.73643   -2.520673 O.3        1 UNL1     -0.5058
     27 O         -1.805466   -0.946799   1.547189 O.3        1 UNL1     -0.3648
     28 O         0.819271   -1.696641   -0.813038 O.3        1 UNL1     -0.3841
     29 O         -1.71066   0.687895   -1.687272 O.3        1 UNL1     -0.3863
     30 O         -1.269029   -2.799521   -2.756384 O.3        1 UNL1     -0.3829
     31 H         -0.485624   -2.375423   1.105558 H        1 UNL1     0.0937
     32 H         0.0   0.0   0.0 H        1 UNL1     0.0671
     33 H         -0.319268   -0.486032   -2.564576 H        1 UNL1     0.0649
     34 H         -2.674201   -1.330359   -3.037434 H        1 UNL1     0.0683
     35 H         -3.419298   -3.093396   -1.504208 H        1 UNL1     0.1085
     36 H         -1.890928   0.534999   -1.23283 H        1 UNL1     0.0691
     37 H         -6.091449   -0.343639   -1.695231 H        1 UNL1     0.0691
     38 H         -5.760186   2.901828   -5.318741 H        1 UNL1     0.0385
     39 H         -5.951298   4.58605   -4.793939 H        1 UNL1     0.0385
     40 H         -7.821031   3.075243   -4.025233 H        1 UNL1     0.0789
     41 H         -9.117581   4.637274   -3.011583 H        1 UNL1     0.0623
     42 H         -9.517201   6.308771   -1.248466 H        1 UNL1     0.0654
     43 H         -5.64193   5.496378   0.416369 H        1 UNL1     0.0654
     44 H         -5.233119   3.814418   -1.289456 H        1 UNL1     0.0623
     45 H         -8.127328   6.536124   1.435974 H        1 UNL1     0.2921
     46 H         -1.963476   3.116646   -3.413044 H        1 UNL1     0.2922
     47 H         -2.319246   -1.500926   2.151204 H        1 UNL1     0.2126
     48 H         0.851356   -2.45188   -0.19472 H        1 UNL1     0.2101
     49 H         -1.917698   0.890036   -0.760953 H        1 UNL1     0.2100
     50 H         -0.321361   -2.616847   -2.588256 H        1 UNL1     0.2102
@<TRIPOS>BOND
     1     1     2    1
     2     1     6    1
     3     2     3    1
     4     3     4    1
     5     3    29    1
     6     3    33    1
     7     4     5    1
     8     5     6    1
     9     5     7    1
    10     5    35    1
    11     7     8    1
    12     8     9   ar
    13     8    13   ar
    14     9    10   ar
    15     9    36    1
    16    10    11   ar
    17    10    26    1
    18    11    12   ar
    19    11    14    1
    20    12    13   ar
    21    12    17    1
    22    13    37    1
    23    14    15    1
    24    14    25    2
    25    15    16    1
    26    15    38    1
    27    15    39    1
    28    16    17    1
    29    16    18    1
    30    16    40    1
    31    18    19   ar
    32    18    23   ar
    33    19    20   ar
    34    19    41    1
    35    20    21   ar
    36    20    42    1
    37    21    22   ar
    38    21    24    1
    39    22    23   ar
    40    22    43    1
    41    23    44    1
    42    24    45    1
    43    26    46    1
    44    27    47    1
    45    28    48    1
    46    29    49    1
    47    30    50    1
    48     1    31    1
    49     1    27    1
    50     2    32    1
    51     2    28    1
    52     4    34    1
    53     4    30    1
