@<TRIPOS>MOLECULE
*****
 50 53 0 0 0
SMALL
GASTEIGER

@<TRIPOS>ATOM
     1 C         -0.128227   -1.910573   1.050749 C.3        1 UNL1     0.1889
     2 C         -0.514803   -0.961857   -0.115629 C.3        1 UNL1     0.1342
     3 C         -2.022948   -0.70848   -0.263158 C.3        1 UNL1     0.1174
     4 C         -2.868327   -1.933546   0.094141 C.3        1 UNL1     0.1456
     5 C         -2.421623   -2.595353   1.410511 C.3        1 UNL1     0.2326
     6 O         -1.045211   -2.958371   1.329417 O.3        1 UNL1     -0.3076
     7 O         -2.733118   -1.814975   2.578973 O.3        1 UNL1     -0.4605
     8 C         -2.714075   -0.441727   2.413579 C.ar        1 UNL1     0.1310
     9 C         -1.719541   0.280238   1.745022 C.ar        1 UNL1     0.0226
     10 C         -1.798911   1.671919   1.615304 C.ar        1 UNL1     0.1343
     11 C         -2.887879   2.373484   2.130859 C.ar        1 UNL1     0.1007
     12 C         -3.866666   1.668315   2.836193 C.ar        1 UNL1     0.1389
     13 C         -3.785293   0.269304   2.968779 C.ar        1 UNL1     0.0229
     14 C         -3.064378   3.833002   1.949729 C.2        1 UNL1     0.1740
     15 C         -4.39489   4.383455   2.371971 C.3        1 UNL1     0.0520
     16 C         -4.811007   3.698169   3.666261 C.3        1 UNL1     0.1322
     17 O         -4.924506   2.27045   3.47703 O.3        1 UNL1     -0.4828
     18 C         -3.9749   4.1128   4.87941 C.ar        1 UNL1     -0.0067
     19 C         -4.367718   3.69369   6.167142 C.ar        1 UNL1     -0.0516
     20 C         -3.652719   4.094268   7.302164 C.ar        1 UNL1     -0.0198
     21 C         -2.549952   4.918015   7.163698 C.ar        1 UNL1     0.1169
     22 C         -2.118795   5.320012   5.906184 C.ar        1 UNL1     -0.0198
     23 C         -2.82272   4.904512   4.769563 C.ar        1 UNL1     -0.0516
     24 O         -1.90102   5.318463   8.294596 O.3        1 UNL1     -0.5068
     25 O         -2.224994   4.554659   1.417628 O.2        1 UNL1     -0.2917
     26 O         -0.795468   2.316619   0.952697 O.3        1 UNL1     -0.5058
     27 O         0.259521   -1.226123   2.231413 O.3        1 UNL1     -0.3648
     28 O         -0.055715   -1.545081   -1.34924 O.3        1 UNL1     -0.3841
     29 O         -2.413225   0.462432   0.457106 O.3        1 UNL1     -0.3863
     30 O         -2.769135   -2.90441   -0.970412 O.3        1 UNL1     -0.3829
     31 H         0.777721   -2.440071   0.736158 H        1 UNL1     0.0937
     32 H         0.0   0.0   0.0 H        1 UNL1     0.0671
     33 H         -2.223075   -0.481407   -1.319618 H        1 UNL1     0.0649
     34 H         -3.923727   -1.649854   0.171928 H        1 UNL1     0.0683
     35 H         -2.996308   -3.529379   1.445321 H        1 UNL1     0.1085
     36 H         -0.876311   -0.212742   1.273796 H        1 UNL1     0.0691
     37 H         -4.559638   -0.256155   3.523554 H        1 UNL1     0.0691
     38 H         -5.109231   4.176281   1.568028 H        1 UNL1     0.0385
     39 H         -4.31401   5.469827   2.486126 H        1 UNL1     0.0385
     40 H         -5.834256   4.027354   3.892351 H        1 UNL1     0.0789
     41 H         -5.235153   3.054392   6.303178 H        1 UNL1     0.0623
     42 H         -3.972634   3.774134   8.290689 H        1 UNL1     0.0654
     43 H         -1.247656   5.952778   5.785217 H        1 UNL1     0.0654
     44 H         -2.451532   5.228832   3.802154 H        1 UNL1     0.0623
     45 H         -2.502186   5.879626   8.810748 H        1 UNL1     0.2921
     46 H         -1.171613   2.845286   0.231283 H        1 UNL1     0.2922
     47 H         0.973347   -0.60256   2.037815 H        1 UNL1     0.2126
     48 H         0.91639   -1.451972   -1.357904 H        1 UNL1     0.2101
     49 H         -2.21376   1.254262   -0.06731 H        1 UNL1     0.2100
     50 H         -3.210353   -2.530809   -1.761274 H        1 UNL1     0.2102
@<TRIPOS>BOND
     1     1     2    1
     2     1     6    1
     3     2     3    1
     4     3     4    1
     5     3    29    1
     6     3    33    1
     7     4     5    1
     8     5     6    1
     9     5     7    1
    10     5    35    1
    11     7     8    1
    12     8     9   ar
    13     8    13   ar
    14     9    10   ar
    15     9    36    1
    16    10    11   ar
    17    10    26    1
    18    11    12   ar
    19    11    14    1
    20    12    13   ar
    21    12    17    1
    22    13    37    1
    23    14    15    1
    24    14    25    2
    25    15    16    1
    26    15    38    1
    27    15    39    1
    28    16    17    1
    29    16    18    1
    30    16    40    1
    31    18    19   ar
    32    18    23   ar
    33    19    20   ar
    34    19    41    1
    35    20    21   ar
    36    20    42    1
    37    21    22   ar
    38    21    24    1
    39    22    23   ar
    40    22    43    1
    41    23    44    1
    42    24    45    1
    43    26    46    1
    44    27    47    1
    45    28    48    1
    46    29    49    1
    47    30    50    1
    48     1    31    1
    49     1    27    1
    50     2    32    1
    51     2    28    1
    52     4    34    1
    53     4    30    1
