@<TRIPOS>MOLECULE
*****
 50 53 0 0 0
SMALL
GASTEIGER

@<TRIPOS>ATOM
     1 C         -0.31748   -1.374951   1.667189 C.3        1 UNL1     0.1889
     2 C         -0.460271   -0.9808   0.172467 C.3        1 UNL1     0.1342
     3 C         -1.905353   -0.954783   -0.348614 C.3        1 UNL1     0.1174
     4 C         -2.785673   -2.03255   0.289017 C.3        1 UNL1     0.1456
     5 C         -2.62173   -2.099926   1.818379 C.3        1 UNL1     0.2326
     6 O         -1.253933   -2.326416   2.151097 O.3        1 UNL1     -0.3076
     7 O         -3.192096   -0.971741   2.506275 O.3        1 UNL1     -0.4605
     8 C         -3.701926   -1.224888   3.767036 C.ar        1 UNL1     0.1310
     9 C         -4.755372   -2.09947   4.054539 C.ar        1 UNL1     0.0226
     10 C         -5.189588   -2.301748   5.370002 C.ar        1 UNL1     0.1343
     11 C         -4.564559   -1.651758   6.433343 C.ar        1 UNL1     0.1007
     12 C         -3.538534   -0.744809   6.154957 C.ar        1 UNL1     0.1389
     13 C         -3.103868   -0.539592   4.831937 C.ar        1 UNL1     0.0229
     14 C         -4.927146   -1.892133   7.84929 C.2        1 UNL1     0.1740
     15 C         -4.008541   -1.282603   8.867222 C.3        1 UNL1     0.0520
     16 C         -3.608149   0.104961   8.385236 C.3        1 UNL1     0.1322
     17 O         -2.926855   0.029279   7.113552 O.3        1 UNL1     -0.4828
     18 C         -4.746526   1.126884   8.435193 C.ar        1 UNL1     -0.0067
     19 C         -5.776882   1.063323   7.474703 C.ar        1 UNL1     -0.0516
     20 C         -6.807415   2.01086   7.462976 C.ar        1 UNL1     -0.0198
     21 C         -6.814897   3.028832   8.399729 C.ar        1 UNL1     0.1169
     22 C         -5.832409   3.098454   9.378865 C.ar        1 UNL1     -0.0198
     23 C         -4.811893   2.140301   9.402202 C.ar        1 UNL1     -0.0516
     24 O         -7.813724   3.955332   8.333835 O.3        1 UNL1     -0.5068
     25 O         -5.864929   -2.605805   8.195295 O.2        1 UNL1     -0.2917
     26 O         -6.222777   -3.167106   5.582745 O.3        1 UNL1     -0.5058
     27 O         -0.206101   -0.260208   2.537666 O.3        1 UNL1     -0.3648
     28 O         0.264688   -1.937263   -0.622718 O.3        1 UNL1     -0.3841
     29 O         -2.462948   0.355783   -0.231837 O.3        1 UNL1     -0.3863
     30 O         -2.441559   -3.318188   -0.271706 O.3        1 UNL1     -0.3829
     31 H         0.644419   -1.890112   1.764349 H        1 UNL1     0.0937
     32 H         0.0   0.0   0.0 H        1 UNL1     0.0671
     33 H         -1.876821   -1.164699   -1.426965 H        1 UNL1     0.0649
     34 H         -3.837932   -1.848077   0.045866 H        1 UNL1     0.0683
     35 H         -3.173432   -3.004329   2.103966 H        1 UNL1     0.1085
     36 H         -5.245276   -2.676762   3.278106 H        1 UNL1     0.0691
     37 H         -2.303902   0.17268   4.641631 H        1 UNL1     0.0691
     38 H         -3.134657   -1.936478   8.958333 H        1 UNL1     0.0385
     39 H         -4.5165   -1.253395   9.837224 H        1 UNL1     0.0385
     40 H         -2.847717   0.482753   9.08204 H        1 UNL1     0.0789
     41 H         -5.788646   0.279357   6.723099 H        1 UNL1     0.0623
     42 H         -7.589745   1.958061   6.70986 H        1 UNL1     0.0654
     43 H         -5.836993   3.882675   10.126452 H        1 UNL1     0.0654
     44 H         -4.066539   2.219038   10.187755 H        1 UNL1     0.0623
     45 H         -7.435089   4.792753   8.020659 H        1 UNL1     0.2921
     46 H         -6.014243   -3.740746   6.336975 H        1 UNL1     0.2922
     47 H         0.527251   0.307527   2.262472 H        1 UNL1     0.2126
     48 H         -0.308435   -2.16249   -1.380699 H        1 UNL1     0.2101
     49 H         -3.005054   0.413443   0.571027 H        1 UNL1     0.2100
     50 H         -1.887423   -3.793474   0.381555 H        1 UNL1     0.2102
@<TRIPOS>BOND
     1     1     2    1
     2     1     6    1
     3     2     3    1
     4     3     4    1
     5     3    29    1
     6     3    33    1
     7     4     5    1
     8     5     6    1
     9     5     7    1
    10     5    35    1
    11     7     8    1
    12     8     9   ar
    13     8    13   ar
    14     9    10   ar
    15     9    36    1
    16    10    11   ar
    17    10    26    1
    18    11    12   ar
    19    11    14    1
    20    12    13   ar
    21    12    17    1
    22    13    37    1
    23    14    15    1
    24    14    25    2
    25    15    16    1
    26    15    38    1
    27    15    39    1
    28    16    17    1
    29    16    18    1
    30    16    40    1
    31    18    19   ar
    32    18    23   ar
    33    19    20   ar
    34    19    41    1
    35    20    21   ar
    36    20    42    1
    37    21    22   ar
    38    21    24    1
    39    22    23   ar
    40    22    43    1
    41    23    44    1
    42    24    45    1
    43    26    46    1
    44    27    47    1
    45    28    48    1
    46    29    49    1
    47    30    50    1
    48     1    31    1
    49     1    27    1
    50     2    32    1
    51     2    28    1
    52     4    34    1
    53     4    30    1
