@<TRIPOS>MOLECULE
*****
 50 53 0 0 0
SMALL
GASTEIGER

@<TRIPOS>ATOM
     1 C         -0.729601   -1.053518   1.768781 C.3        1 UNL1     0.1889
     2 C         -0.571603   -0.907357   0.231376 C.3        1 UNL1     0.1342
     3 C         -1.894509   -0.878938   -0.549377 C.3        1 UNL1     0.1174
     4 C         -2.968229   -1.77752   0.069327 C.3        1 UNL1     0.1456
     5 C         -3.081497   -1.597688   1.594186 C.3        1 UNL1     0.2326
     6 O         -1.81981   -1.850099   2.208438 O.3        1 UNL1     -0.3076
     7 O         -3.657252   -0.336802   1.981474 O.3        1 UNL1     -0.4605
     8 C         -4.391604   -0.340253   3.153756 C.ar        1 UNL1     0.1310
     9 C         -5.349341   -1.296873   3.507196 C.ar        1 UNL1     0.0226
     10 C         -6.029872   -1.222805   4.728382 C.ar        1 UNL1     0.1343
     11 C         -5.751735   -0.202588   5.637028 C.ar        1 UNL1     0.1007
     12 C         -4.827011   0.781573   5.277731 C.ar        1 UNL1     0.1389
     13 C         -4.144792   0.708352   4.048647 C.ar        1 UNL1     0.0229
     14 C         -6.379913   -0.123505   6.976167 C.2        1 UNL1     0.1740
     15 C         -5.802708   0.904482   7.904405 C.3        1 UNL1     0.0520
     16 C         -5.504417   2.164034   7.102839 C.3        1 UNL1     0.1322
     17 O         -4.556077   1.888287   6.048474 O.3        1 UNL1     -0.4828
     18 C         -6.757488   2.916275   6.648227 C.ar        1 UNL1     -0.0067
     19 C         -6.870146   3.325017   5.30344 C.ar        1 UNL1     -0.0516
     20 C         -7.980962   4.055939   4.865487 C.ar        1 UNL1     -0.0198
     21 C         -8.980078   4.389977   5.762156 C.ar        1 UNL1     0.1169
     22 C         -8.913655   3.973019   7.085248 C.ar        1 UNL1     -0.0198
     23 C         -7.811828   3.226242   7.51925 C.ar        1 UNL1     -0.0516
     24 O         -10.028331   5.135099   5.307889 O.3        1 UNL1     -0.5068
     25 O         -7.26142   -0.889872   7.355788 O.2        1 UNL1     -0.2917
     26 O         -6.952882   -2.186651   5.01235 O.3        1 UNL1     -0.5058
     27 O         -0.670284   0.18221   2.46322 O.3        1 UNL1     -0.3648
     28 O         0.190274   -2.02692   -0.257326 O.3        1 UNL1     -0.3841
     29 O         -2.340972   0.46486   -0.741755 O.3        1 UNL1     -0.3863
     30 O         -2.651007   -3.157886   -0.212893 O.3        1 UNL1     -0.3829
     31 H         0.148892   -1.604103   2.122595 H        1 UNL1     0.0937
     32 H         0.0   0.0   -0.0 H        1 UNL1     0.0671
     33 H         -1.697044   -1.268002   -1.558018 H        1 UNL1     0.0649
     34 H         -3.940157   -1.571123   -0.392361 H        1 UNL1     0.0683
     35 H         -3.755503   -2.405214   1.906431 H        1 UNL1     0.1085
     36 H         -5.570405   -2.145304   2.868906 H        1 UNL1     0.0691
     37 H         -3.430419   1.487663   3.792056 H        1 UNL1     0.0691
     38 H         -4.887585   0.484742   8.335561 H        1 UNL1     0.0385
     39 H         -6.510773   1.090227   8.719219 H        1 UNL1     0.0385
     40 H         -4.976719   2.856531   7.772543 H        1 UNL1     0.0789
     41 H         -6.094979   3.08322   4.582121 H        1 UNL1     0.0623
     42 H         -8.050556   4.375585   3.828668 H        1 UNL1     0.0654
     43 H         -9.697735   4.216197   7.792351 H        1 UNL1     0.0654
     44 H         -7.797811   2.908071   8.557237 H        1 UNL1     0.0623
     45 H         -9.689489   5.99892   5.02203 H        1 UNL1     0.2921
     46 H         -6.722739   -2.618106   5.850379 H        1 UNL1     0.2922
     47 H         0.154165   0.643742   2.255537 H        1 UNL1     0.2126
     48 H         1.064107   -1.981226   0.176333 H        1 UNL1     0.2101
     49 H         -1.751094   0.923087   -1.361325 H        1 UNL1     0.2100
     50 H         -2.719884   -3.291234   -1.180977 H        1 UNL1     0.2102
@<TRIPOS>BOND
     1     1     2    1
     2     1     6    1
     3     2     3    1
     4     3     4    1
     5     3    29    1
     6     3    33    1
     7     4     5    1
     8     5     6    1
     9     5     7    1
    10     5    35    1
    11     7     8    1
    12     8     9   ar
    13     8    13   ar
    14     9    10   ar
    15     9    36    1
    16    10    11   ar
    17    10    26    1
    18    11    12   ar
    19    11    14    1
    20    12    13   ar
    21    12    17    1
    22    13    37    1
    23    14    15    1
    24    14    25    2
    25    15    16    1
    26    15    38    1
    27    15    39    1
    28    16    17    1
    29    16    18    1
    30    16    40    1
    31    18    19   ar
    32    18    23   ar
    33    19    20   ar
    34    19    41    1
    35    20    21   ar
    36    20    42    1
    37    21    22   ar
    38    21    24    1
    39    22    23   ar
    40    22    43    1
    41    23    44    1
    42    24    45    1
    43    26    46    1
    44    27    47    1
    45    28    48    1
    46    29    49    1
    47    30    50    1
    48     1    31    1
    49     1    27    1
    50     2    32    1
    51     2    28    1
    52     4    34    1
    53     4    30    1
