@<TRIPOS>MOLECULE
*****
 50 53 0 0 0
SMALL
GASTEIGER

@<TRIPOS>ATOM
     1 C         -0.321101   -1.312395   1.716193 C.3        1 UNL1     0.1889
     2 C         -0.472885   -0.967333   0.21026 C.3        1 UNL1     0.1342
     3 C         -1.922519   -0.937414   -0.297807 C.3        1 UNL1     0.1174
     4 C         -2.812205   -1.979485   0.38459 C.3        1 UNL1     0.1456
     5 C         -2.634133   -1.997136   1.913754 C.3        1 UNL1     0.2326
     6 O         -1.266579   -2.23265   2.241166 O.3        1 UNL1     -0.3076
     7 O         -3.18104   -0.837723   2.567951 O.3        1 UNL1     -0.4605
     8 C         -3.671722   -1.037675   3.845753 C.ar        1 UNL1     0.1310
     9 C         -4.496822   -2.096298   4.240505 C.ar        1 UNL1     0.0226
     10 C         -4.928827   -2.2217   5.56623 C.ar        1 UNL1     0.1343
     11 C         -4.526359   -1.303807   6.535423 C.ar        1 UNL1     0.1007
     12 C         -3.736018   -0.219554   6.144859 C.ar        1 UNL1     0.1389
     13 C         -3.30394   -0.092222   4.811245 C.ar        1 UNL1     0.0229
     14 C         -4.884302   -1.435024   7.96679 C.2        1 UNL1     0.1740
     15 C         -4.185374   -0.490542   8.900064 C.3        1 UNL1     0.0520
     16 C         -4.10775   0.876078   8.23352 C.3        1 UNL1     0.1322
     17 O         -3.371504   0.800408   6.992841 O.3        1 UNL1     -0.4828
     18 C         -5.458866   1.587321   8.127018 C.ar        1 UNL1     -0.0067
     19 C         -5.824489   2.201074   6.911353 C.ar        1 UNL1     -0.0516
     20 C         -7.031686   2.90031   6.794283 C.ar        1 UNL1     -0.0198
     21 C         -7.876596   2.999042   7.88525 C.ar        1 UNL1     0.1169
     22 C         -7.559765   2.376984   9.085875 C.ar        1 UNL1     -0.0198
     23 C         -6.36125   1.662074   9.19777 C.ar        1 UNL1     -0.0516
     24 O         -9.02585   3.72006   7.744727 O.3        1 UNL1     -0.5068
     25 O         -5.638419   -2.303117   8.398308 O.2        1 UNL1     -0.2917
     26 O         -5.733118   -3.276455   5.885904 O.3        1 UNL1     -0.5058
     27 O         -0.184759   -0.170421   2.546911 O.3        1 UNL1     -0.3648
     28 O         0.230049   -1.96112   -0.55849 O.3        1 UNL1     -0.3841
     29 O         -2.459637   0.384591   -0.220733 O.3        1 UNL1     -0.3863
     30 O         -2.492565   -3.288511   -0.134998 O.3        1 UNL1     -0.3829
     31 H         0.634048   -1.83832   1.821891 H        1 UNL1     0.0937
     32 H         0.0   0.0   0.0 H        1 UNL1     0.0671
     33 H         -1.907749   -1.184375   -1.36856 H        1 UNL1     0.0649
     34 H         -3.863999   -1.787639   0.145163 H        1 UNL1     0.0683
     35 H         -3.196193   -2.882896   2.235306 H        1 UNL1     0.1085
     36 H         -4.798604   -2.873342   3.546782 H        1 UNL1     0.0691
     37 H         -2.690172   0.761639   4.532493 H        1 UNL1     0.0691
     38 H         -3.185312   -0.893855   9.091746 H        1 UNL1     0.0385
     39 H         -4.72877   -0.457372   9.850537 H        1 UNL1     0.0385
     40 H         -3.492212   1.516755   8.879405 H        1 UNL1     0.0789
     41 H         -5.17433   2.145761   6.043087 H        1 UNL1     0.0623
     42 H         -7.296839   3.379359   5.855019 H        1 UNL1     0.0654
     43 H         -8.221227   2.43526   9.942019 H        1 UNL1     0.0654
     44 H         -6.150627   1.179717   10.147409 H        1 UNL1     0.0623
     45 H         -8.788726   4.634447   7.520261 H        1 UNL1     0.2921
     46 H         -5.32425   -3.790223   6.600244 H        1 UNL1     0.2922
     47 H         0.561097   0.370715   2.252412 H        1 UNL1     0.2126
     48 H         1.168604   -1.906977   -0.294075 H        1 UNL1     0.2101
     49 H         -2.023761   0.956412   -0.872521 H        1 UNL1     0.2100
     50 H         -2.784081   -3.321327   -1.069693 H        1 UNL1     0.2102
@<TRIPOS>BOND
     1     1     2    1
     2     1     6    1
     3     2     3    1
     4     3     4    1
     5     3    29    1
     6     3    33    1
     7     4     5    1
     8     5     6    1
     9     5     7    1
    10     5    35    1
    11     7     8    1
    12     8     9   ar
    13     8    13   ar
    14     9    10   ar
    15     9    36    1
    16    10    11   ar
    17    10    26    1
    18    11    12   ar
    19    11    14    1
    20    12    13   ar
    21    12    17    1
    22    13    37    1
    23    14    15    1
    24    14    25    2
    25    15    16    1
    26    15    38    1
    27    15    39    1
    28    16    17    1
    29    16    18    1
    30    16    40    1
    31    18    19   ar
    32    18    23   ar
    33    19    20   ar
    34    19    41    1
    35    20    21   ar
    36    20    42    1
    37    21    22   ar
    38    21    24    1
    39    22    23   ar
    40    22    43    1
    41    23    44    1
    42    24    45    1
    43    26    46    1
    44    27    47    1
    45    28    48    1
    46    29    49    1
    47    30    50    1
    48     1    31    1
    49     1    27    1
    50     2    32    1
    51     2    28    1
    52     4    34    1
    53     4    30    1
