@<TRIPOS>MOLECULE
*****
 50 53 0 0 0
SMALL
GASTEIGER

@<TRIPOS>ATOM
     1 C         2.075795   0.430313   -0.526031 C.3        1 UNL1     0.1889
     2 C         0.66929   -0.136391   -0.858493 C.3        1 UNL1     0.1342
     3 C         0.65574   -1.615329   -1.274453 C.3        1 UNL1     0.1174
     4 C         1.897381   -2.018435   -2.073796 C.3        1 UNL1     0.1456
     5 C         3.20211   -1.510204   -1.43368 C.3        1 UNL1     0.2326
     6 O         3.152789   -0.092571   -1.289623 O.3        1 UNL1     -0.3076
     7 O         3.54506   -2.19141   -0.213162 O.3        1 UNL1     -0.4605
     8 C         4.893717   -2.253205   0.088225 C.ar        1 UNL1     0.1310
     9 C         5.430572   -2.57914   1.338367 C.ar        1 UNL1     0.0226
     10 C         6.814928   -2.631946   1.540042 C.ar        1 UNL1     0.1343
     11 C         7.696896   -2.383112   0.489302 C.ar        1 UNL1     0.1007
     12 C         7.173023   -2.016477   -0.753243 C.ar        1 UNL1     0.1389
     13 C         5.781047   -1.960869   -0.955089 C.ar        1 UNL1     0.0229
     14 C         9.166713   -2.506937   0.625163 C.2        1 UNL1     0.1740
     15 C         9.946372   -2.422953   -0.654145 C.3        1 UNL1     0.0520
     16 C         9.328263   -1.337573   -1.524689 C.3        1 UNL1     0.1322
     17 O         7.949447   -1.645558   -1.826487 O.3        1 UNL1     -0.4828
     18 C         9.560996   0.080939   -0.998968 C.ar        1 UNL1     -0.0067
     19 C         9.024246   1.177636   -1.704213 C.ar        1 UNL1     -0.0516
     20 C         9.258168   2.490243   -1.27724 C.ar        1 UNL1     -0.0198
     21 C         10.031568   2.719159   -0.153284 C.ar        1 UNL1     0.1169
     22 C         10.545938   1.658687   0.581333 C.ar        1 UNL1     -0.0198
     23 C         10.296788   0.345395   0.165105 C.ar        1 UNL1     -0.0516
     24 O         10.269374   4.01199   0.210636 O.3        1 UNL1     -0.5068
     25 O         9.729652   -2.743609   1.690795 O.2        1 UNL1     -0.2917
     26 O         7.274114   -2.954938   2.783589 O.3        1 UNL1     -0.5058
     27 O         2.370587   0.433214   0.861729 O.3        1 UNL1     -0.3648
     28 O         0.119098   0.621251   -1.952099 O.3        1 UNL1     -0.3841
     29 O         0.428145   -2.458181   -0.143112 O.3        1 UNL1     -0.3863
     30 O         1.795783   -1.480356   -3.410149 O.3        1 UNL1     -0.3829
     31 H         2.058614   1.490774   -0.800266 H        1 UNL1     0.0937
     32 H         0.0   0.0   0.0 H        1 UNL1     0.0671
     33 H         -0.210338   -1.770574   -1.932882 H        1 UNL1     0.0649
     34 H         1.942541   -3.108905   -2.169898 H        1 UNL1     0.0683
     35 H         3.968911   -1.727689   -2.187732 H        1 UNL1     0.1085
     36 H         4.798227   -2.837636   2.18065 H        1 UNL1     0.0691
     37 H         5.398507   -1.67175   -1.931597 H        1 UNL1     0.0691
     38 H         9.888174   -3.401645   -1.142308 H        1 UNL1     0.0385
     39 H         10.997045   -2.21874   -0.421417 H        1 UNL1     0.0385
     40 H         9.837002   -1.374051   -2.497507 H        1 UNL1     0.0789
     41 H         8.421495   1.024743   -2.594699 H        1 UNL1     0.0623
     42 H         8.848705   3.327922   -1.836387 H        1 UNL1     0.0654
     43 H         11.140346   1.826202   1.471574 H        1 UNL1     0.0654
     44 H         10.705316   -0.459185   0.768927 H        1 UNL1     0.0623
     45 H         9.731738   4.21409   0.993465 H        1 UNL1     0.2921
     46 H         6.909419   -2.334523   3.434354 H        1 UNL1     0.2922
     47 H         1.806792   -0.201828   1.325104 H        1 UNL1     0.2126
     48 H         0.675538   0.431279   -2.731854 H        1 UNL1     0.2101
     49 H         -0.174203   -3.179636   -0.384925 H        1 UNL1     0.2100
     50 H         1.169405   -2.040389   -3.913861 H        1 UNL1     0.2102
@<TRIPOS>BOND
     1     1     2    1
     2     1     6    1
     3     2     3    1
     4     3     4    1
     5     3    29    1
     6     3    33    1
     7     4     5    1
     8     5     6    1
     9     5     7    1
    10     5    35    1
    11     7     8    1
    12     8     9   ar
    13     8    13   ar
    14     9    10   ar
    15     9    36    1
    16    10    11   ar
    17    10    26    1
    18    11    12   ar
    19    11    14    1
    20    12    13   ar
    21    12    17    1
    22    13    37    1
    23    14    15    1
    24    14    25    2
    25    15    16    1
    26    15    38    1
    27    15    39    1
    28    16    17    1
    29    16    18    1
    30    16    40    1
    31    18    19   ar
    32    18    23   ar
    33    19    20   ar
    34    19    41    1
    35    20    21   ar
    36    20    42    1
    37    21    22   ar
    38    21    24    1
    39    22    23   ar
    40    22    43    1
    41    23    44    1
    42    24    45    1
    43    26    46    1
    44    27    47    1
    45    28    48    1
    46    29    49    1
    47    30    50    1
    48     1    31    1
    49     1    27    1
    50     2    32    1
    51     2    28    1
    52     4    34    1
    53     4    30    1
