@<TRIPOS>MOLECULE
*****
 50 53 0 0 0
SMALL
GASTEIGER

@<TRIPOS>ATOM
     1 C         1.052345   -0.645434   1.801885 C.3        1 UNL1     0.1889
     2 C         -0.112271   -0.761223   0.781982 C.3        1 UNL1     0.1342
     3 C         -1.516   -0.645873   1.395746 C.3        1 UNL1     0.1174
     4 C         -1.604568   -1.261311   2.794498 C.3        1 UNL1     0.1456
     5 C         -0.43534   -0.836243   3.701464 C.3        1 UNL1     0.2326
     6 O         0.805008   -1.185977   3.091471 O.3        1 UNL1     -0.3076
     7 O         -0.497101   0.543063   4.107693 O.3        1 UNL1     -0.4605
     8 C         -0.803472   0.770272   5.43737 C.ar        1 UNL1     0.1310
     9 C         0.091716   0.655121   6.506331 C.ar        1 UNL1     0.0226
     10 C         -0.311147   0.923881   7.819866 C.ar        1 UNL1     0.1343
     11 C         -1.614028   1.337783   8.093774 C.ar        1 UNL1     0.1007
     12 C         -2.528022   1.416759   7.039657 C.ar        1 UNL1     0.1389
     13 C         -2.123401   1.143913   5.719329 C.ar        1 UNL1     0.0229
     14 C         -2.070366   1.715504   9.451432 C.2        1 UNL1     0.1740
     15 C         -3.429225   2.347404   9.527275 C.3        1 UNL1     0.0520
     16 C         -4.354749   1.616785   8.564176 C.3        1 UNL1     0.1322
     17 O         -3.861433   1.709065   7.209483 O.3        1 UNL1     -0.4828
     18 C         -4.715492   0.198539   9.012693 C.ar        1 UNL1     -0.0067
     19 C         -4.969708   -0.05285   10.376655 C.ar        1 UNL1     -0.0516
     20 C         -5.255765   -1.347057   10.82739 C.ar        1 UNL1     -0.0198
     21 C         -5.283259   -2.397229   9.927272 C.ar        1 UNL1     0.1169
     22 C         -5.070099   -2.175818   8.57288 C.ar        1 UNL1     -0.0198
     23 C         -4.802226   -0.878725   8.119174 C.ar        1 UNL1     -0.0516
     24 O         -5.527933   -3.649781   10.40857 O.3        1 UNL1     -0.5068
     25 O         -1.37115   1.604367   10.455041 O.2        1 UNL1     -0.2917
     26 O         0.610307   0.7917   8.817381 O.3        1 UNL1     -0.5058
     27 O         1.609785   0.656968   1.878009 O.3        1 UNL1     -0.3648
     28 O         -0.029917   -2.047053   0.139668 O.3        1 UNL1     -0.3841
     29 O         -1.977379   0.706036   1.355703 O.3        1 UNL1     -0.3863
     30 O         -1.603173   -2.700924   2.679599 O.3        1 UNL1     -0.3829
     31 H         1.868639   -1.266017   1.416373 H        1 UNL1     0.0937
     32 H         0.0   0.0   0.0 H        1 UNL1     0.0671
     33 H         -2.209111   -1.209778   0.755958 H        1 UNL1     0.0649
     34 H         -2.551112   -0.978481   3.268274 H        1 UNL1     0.0683
     35 H         -0.544596   -1.471762   4.58919 H        1 UNL1     0.1085
     36 H         1.132493   0.391887   6.352674 H        1 UNL1     0.0691
     37 H         -2.854469   1.211567   4.916549 H        1 UNL1     0.0691
     38 H         -3.320628   3.40087   9.248092 H        1 UNL1     0.0385
     39 H         -3.78862   2.302803   10.561018 H        1 UNL1     0.0385
     40 H         -5.30521   2.167141   8.548334 H        1 UNL1     0.0789
     41 H         -4.945037   0.752965   11.104463 H        1 UNL1     0.0623
     42 H         -5.438301   -1.530036   11.883425 H        1 UNL1     0.0654
     43 H         -5.104146   -2.988572   7.857212 H        1 UNL1     0.0654
     44 H         -4.651062   -0.740509   7.052924 H        1 UNL1     0.0623
     45 H         -4.782052   -4.22239   10.166705 H        1 UNL1     0.2921
     46 H         0.154272   0.694119   9.668217 H        1 UNL1     0.2922
     47 H         1.007601   1.302546   1.482452 H        1 UNL1     0.2126
     48 H         -0.069777   -2.717105   0.849015 H        1 UNL1     0.2101
     49 H         -2.46497   0.912558   2.168967 H        1 UNL1     0.2100
     50 H         -2.477785   -3.027894   2.976007 H        1 UNL1     0.2102
@<TRIPOS>BOND
     1     1     2    1
     2     1     6    1
     3     2     3    1
     4     3     4    1
     5     3    29    1
     6     3    33    1
     7     4     5    1
     8     5     6    1
     9     5     7    1
    10     5    35    1
    11     7     8    1
    12     8     9   ar
    13     8    13   ar
    14     9    10   ar
    15     9    36    1
    16    10    11   ar
    17    10    26    1
    18    11    12   ar
    19    11    14    1
    20    12    13   ar
    21    12    17    1
    22    13    37    1
    23    14    15    1
    24    14    25    2
    25    15    16    1
    26    15    38    1
    27    15    39    1
    28    16    17    1
    29    16    18    1
    30    16    40    1
    31    18    19   ar
    32    18    23   ar
    33    19    20   ar
    34    19    41    1
    35    20    21   ar
    36    20    42    1
    37    21    22   ar
    38    21    24    1
    39    22    23   ar
    40    22    43    1
    41    23    44    1
    42    24    45    1
    43    26    46    1
    44    27    47    1
    45    28    48    1
    46    29    49    1
    47    30    50    1
    48     1    31    1
    49     1    27    1
    50     2    32    1
    51     2    28    1
    52     4    34    1
    53     4    30    1
