@<TRIPOS>MOLECULE
*****
 50 53 0 0 0
SMALL
GASTEIGER

@<TRIPOS>ATOM
     1 C         -0.393828   -1.378364   1.647973 C.3        1 UNL1     0.1889
     2 C         -0.493035   -0.967844   0.154129 C.3        1 UNL1     0.1342
     3 C         -1.925325   -0.89396   -0.396829 C.3        1 UNL1     0.1174
     4 C         -2.850888   -1.949861   0.212697 C.3        1 UNL1     0.1456
     5 C         -2.721474   -2.034689   1.7445 C.3        1 UNL1     0.2326
     6 O         -1.368442   -2.305071   2.103756 O.3        1 UNL1     -0.3076
     7 O         -3.272184   -0.895482   2.430246 O.3        1 UNL1     -0.4605
     8 C         -3.192165   0.312218   1.760481 C.ar        1 UNL1     0.1310
     9 C         -3.91308   1.467018   2.083005 C.ar        1 UNL1     0.0226
     10 C         -3.74938   2.650029   1.352533 C.ar        1 UNL1     0.1343
     11 C         -2.842277   2.713777   0.295678 C.ar        1 UNL1     0.1007
     12 C         -2.146855   1.555595   -0.061793 C.ar        1 UNL1     0.1389
     13 C         -2.313584   0.365476   0.671179 C.ar        1 UNL1     0.0229
     14 C         -2.568149   3.960236   -0.456217 C.2        1 UNL1     0.1740
     15 C         -1.408089   3.903597   -1.406272 C.3        1 UNL1     0.0520
     16 C         -1.425535   2.55257   -2.10797 C.3        1 UNL1     0.1322
     17 O         -1.310648   1.47628   -1.151167 O.3        1 UNL1     -0.4828
     18 C         -2.573074   2.392466   -3.108092 C.ar        1 UNL1     -0.0067
     19 C         -2.601312   1.265572   -3.955161 C.ar        1 UNL1     -0.0516
     20 C         -3.610408   1.112345   -4.913392 C.ar        1 UNL1     -0.0198
     21 C         -4.590602   2.08045   -5.039167 C.ar        1 UNL1     0.1169
     22 C         -4.608599   3.184679   -4.19703 C.ar        1 UNL1     -0.0198
     23 C         -3.610099   3.328944   -3.226339 C.ar        1 UNL1     -0.0516
     24 O         -5.535504   1.91594   -6.008959 O.3        1 UNL1     -0.5068
     25 O         -3.18233   5.008252   -0.274752 O.2        1 UNL1     -0.2917
     26 O         -4.483297   3.740753   1.717598 O.3        1 UNL1     -0.5058
     27 O         -0.267523   -0.274663   2.5304 O.3        1 UNL1     -0.3648
     28 O         0.219587   -1.939199   -0.634126 O.3        1 UNL1     -0.3841
     29 O         -2.445703   0.431834   -0.280178 O.3        1 UNL1     -0.3863
     30 O         -2.533695   -3.240659   -0.352033 O.3        1 UNL1     -0.3829
     31 H         0.54991   -1.923097   1.760688 H        1 UNL1     0.0937
     32 H         0.0   0.0   0.0 H        1 UNL1     0.0671
     33 H         -1.880265   -1.095795   -1.476158 H        1 UNL1     0.0649
     34 H         -3.891753   -1.731731   -0.050782 H        1 UNL1     0.0683
     35 H         -3.305984   -2.924341   2.010481 H        1 UNL1     0.1085
     36 H         -4.592026   1.497951   2.928106 H        1 UNL1     0.0691
     37 H         -1.761301   -0.522742   0.371938 H        1 UNL1     0.0691
     38 H         -0.492532   4.03186   -0.819049 H        1 UNL1     0.0385
     39 H         -1.481297   4.737833   -2.112296 H        1 UNL1     0.0385
     40 H         -0.506978   2.486888   -2.706685 H        1 UNL1     0.0789
     41 H         -1.838157   0.496186   -3.882429 H        1 UNL1     0.0623
     42 H         -3.614525   0.244841   -5.568704 H        1 UNL1     0.0654
     43 H         -5.380053   3.941249   -4.276856 H        1 UNL1     0.0654
     44 H         -3.661053   4.198676   -2.578408 H        1 UNL1     0.0623
     45 H         -5.370697   1.070742   -6.457507 H        1 UNL1     0.2921
     46 H         -3.940277   4.54007   1.630223 H        1 UNL1     0.2922
     47 H         -0.355351   -0.567934   3.448081 H        1 UNL1     0.2126
     48 H         0.952418   -1.46271   -1.069612 H        1 UNL1     0.2101
     49 H         -3.00272   0.499244   0.511644 H        1 UNL1     0.2100
     50 H         -1.580732   -3.244477   -0.5791 H        1 UNL1     0.2102
@<TRIPOS>BOND
     1     1     2    1
     2     1     6    1
     3     2     3    1
     4     3     4    1
     5     3    29    1
     6     3    33    1
     7     4     5    1
     8     5     6    1
     9     5     7    1
    10     5    35    1
    11     7     8    1
    12     8     9   ar
    13     8    13   ar
    14     9    10   ar
    15     9    36    1
    16    10    11   ar
    17    10    26    1
    18    11    12   ar
    19    11    14    1
    20    12    13   ar
    21    12    17    1
    22    13    37    1
    23    14    15    1
    24    14    25    2
    25    15    16    1
    26    15    38    1
    27    15    39    1
    28    16    17    1
    29    16    18    1
    30    16    40    1
    31    18    19   ar
    32    18    23   ar
    33    19    20   ar
    34    19    41    1
    35    20    21   ar
    36    20    42    1
    37    21    22   ar
    38    21    24    1
    39    22    23   ar
    40    22    43    1
    41    23    44    1
    42    24    45    1
    43    26    46    1
    44    27    47    1
    45    28    48    1
    46    29    49    1
    47    30    50    1
    48     1    31    1
    49     1    27    1
    50     2    32    1
    51     2    28    1
    52     4    34    1
    53     4    30    1
