@<TRIPOS>MOLECULE
*****
 50 53 0 0 0
SMALL
GASTEIGER

@<TRIPOS>ATOM
     1 C         -0.336204   -1.331643   1.698381 C.3        1 UNL1     0.1889
     2 C         -0.464717   -0.974856   0.193015 C.3        1 UNL1     0.1342
     3 C         -1.905099   -0.957932   -0.341289 C.3        1 UNL1     0.1174
     4 C         -2.794211   -2.016838   0.315457 C.3        1 UNL1     0.1456
     5 C         -2.643864   -2.046142   1.847416 C.3        1 UNL1     0.2326
     6 O         -1.27972   -2.268001   2.197785 O.3        1 UNL1     -0.3076
     7 O         -3.216825   -0.899404   2.501656 O.3        1 UNL1     -0.4605
     8 C         -3.728244   -1.116827   3.768425 C.ar        1 UNL1     0.1310
     9 C         -4.547157   -2.189019   4.138676 C.ar        1 UNL1     0.0226
     10 C         -5.001718   -2.331608   5.45509 C.ar        1 UNL1     0.1343
     11 C         -4.628502   -1.41756   6.439501 C.ar        1 UNL1     0.1007
     12 C         -3.844735   -0.320206   6.073022 C.ar        1 UNL1     0.1389
     13 C         -3.38998   -0.175615   4.74874 C.ar        1 UNL1     0.0229
     14 C         -5.010877   -1.566   7.862845 C.2        1 UNL1     0.1740
     15 C         -4.340948   -0.621395   8.817028 C.3        1 UNL1     0.0520
     16 C         -4.268201   0.751998   8.163992 C.3        1 UNL1     0.1322
     17 O         -3.50852   0.69652   6.936442 O.3        1 UNL1     -0.4828
     18 C         -5.625907   1.447489   8.03889 C.ar        1 UNL1     -0.0067
     19 C         -6.478923   1.508031   9.160011 C.ar        1 UNL1     -0.0516
     20 C         -7.746628   2.094779   9.06721 C.ar        1 UNL1     -0.0198
     21 C         -8.174925   2.616783   7.859774 C.ar        1 UNL1     0.1169
     22 C         -7.344556   2.602061   6.746621 C.ar        1 UNL1     -0.0198
     23 C         -6.069601   2.031902   6.843904 C.ar        1 UNL1     -0.0516
     24 O         -9.430401   3.146258   7.79783 O.3        1 UNL1     -0.5068
     25 O         -5.761872   -2.44714   8.272825 O.2        1 UNL1     -0.2917
     26 O         -5.798505   -3.399004   5.750695 O.3        1 UNL1     -0.5058
     27 O         -0.229087   -0.19565   2.54149 O.3        1 UNL1     -0.3648
     28 O         0.264286   -1.953061   -0.57143 O.3        1 UNL1     -0.3841
     29 O         -2.459741   0.356711   -0.262442 O.3        1 UNL1     -0.3863
     30 O         -2.44908   -3.317144   -0.20969 O.3        1 UNL1     -0.3829
     31 H         0.62325   -1.846879   1.816954 H        1 UNL1     0.0937
     32 H         0.0   0.0   0.0 H        1 UNL1     0.0671
     33 H         -1.867762   -1.195013   -1.413724 H        1 UNL1     0.0649
     34 H         -3.84374   -1.835608   0.058465 H        1 UNL1     0.0683
     35 H         -3.200769   -2.941521   2.150783 H        1 UNL1     0.1085
     36 H         -4.826502   -2.963466   3.432759 H        1 UNL1     0.0691
     37 H         -2.781914   0.688199   4.48879 H        1 UNL1     0.0691
     38 H         -3.339606   -1.014075   9.02353 H        1 UNL1     0.0385
     39 H         -4.901992   -0.603437   9.757605 H        1 UNL1     0.0385
     40 H         -3.672603   1.394384   8.826657 H        1 UNL1     0.0789
     41 H         -6.169642   1.097222   10.116689 H        1 UNL1     0.0623
     42 H         -8.399831   2.124701   9.935796 H        1 UNL1     0.0654
     43 H         -7.664103   3.021503   5.800118 H        1 UNL1     0.0654
     44 H         -5.443329   2.047096   5.957114 H        1 UNL1     0.0623
     45 H         -10.06912   2.44674   8.010971 H        1 UNL1     0.2921
     46 H         -5.397074   -3.91331   6.468856 H        1 UNL1     0.2922
     47 H         0.513622   0.35855   2.263811 H        1 UNL1     0.2126
     48 H         1.199901   -1.878227   -0.301695 H        1 UNL1     0.2101
     49 H         -2.019227   0.939598   -0.901178 H        1 UNL1     0.2100
     50 H         -2.686841   -3.331348   -1.159943 H        1 UNL1     0.2102
@<TRIPOS>BOND
     1     1     2    1
     2     1     6    1
     3     2     3    1
     4     3     4    1
     5     3    29    1
     6     3    33    1
     7     4     5    1
     8     5     6    1
     9     5     7    1
    10     5    35    1
    11     7     8    1
    12     8     9   ar
    13     8    13   ar
    14     9    10   ar
    15     9    36    1
    16    10    11   ar
    17    10    26    1
    18    11    12   ar
    19    11    14    1
    20    12    13   ar
    21    12    17    1
    22    13    37    1
    23    14    15    1
    24    14    25    2
    25    15    16    1
    26    15    38    1
    27    15    39    1
    28    16    17    1
    29    16    18    1
    30    16    40    1
    31    18    19   ar
    32    18    23   ar
    33    19    20   ar
    34    19    41    1
    35    20    21   ar
    36    20    42    1
    37    21    22   ar
    38    21    24    1
    39    22    23   ar
    40    22    43    1
    41    23    44    1
    42    24    45    1
    43    26    46    1
    44    27    47    1
    45    28    48    1
    46    29    49    1
    47    30    50    1
    48     1    31    1
    49     1    27    1
    50     2    32    1
    51     2    28    1
    52     4    34    1
    53     4    30    1
