@<TRIPOS>MOLECULE
*****
 50 53 0 0 0
SMALL
GASTEIGER

@<TRIPOS>ATOM
     1 C         -0.340791   -1.334141   1.695504 C.3        1 UNL1     0.1889
     2 C         -0.466568   -0.974448   0.190598 C.3        1 UNL1     0.1342
     3 C         -1.906153   -0.954234   -0.345735 C.3        1 UNL1     0.1174
     4 C         -2.797916   -2.012876   0.307834 C.3        1 UNL1     0.1456
     5 C         -2.649814   -2.04517   1.839952 C.3        1 UNL1     0.2326
     6 O         -1.286535   -2.269866   2.191874 O.3        1 UNL1     -0.3076
     7 O         -3.221859   -0.898681   2.495429 O.3        1 UNL1     -0.4605
     8 C         -3.74563   -1.119996   3.756465 C.ar        1 UNL1     0.1310
     9 C         -4.574124   -2.189273   4.113601 C.ar        1 UNL1     0.0226
     10 C         -5.041029   -2.33637   5.42519 C.ar        1 UNL1     0.1343
     11 C         -4.671004   -1.430008   6.417879 C.ar        1 UNL1     0.1007
     12 C         -3.877539   -0.33538   6.064347 C.ar        1 UNL1     0.1389
     13 C         -3.410359   -0.186239   4.744903 C.ar        1 UNL1     0.0229
     14 C         -5.066699   -1.583977   7.836989 C.2        1 UNL1     0.1740
     15 C         -4.399531   -0.648675   8.802207 C.3        1 UNL1     0.0520
     16 C         -4.312893   0.727828   8.157467 C.3        1 UNL1     0.1322
     17 O         -3.542843   0.674544   6.936299 O.3        1 UNL1     -0.4828
     18 C         -5.665287   1.432135   8.024398 C.ar        1 UNL1     -0.0067
     19 C         -6.020276   2.02312   6.794384 C.ar        1 UNL1     -0.0516
     20 C         -7.228607   2.715765   6.652461 C.ar        1 UNL1     -0.0198
     21 C         -8.085249   2.830525   7.732656 C.ar        1 UNL1     0.1169
     22 C         -7.778862   2.230794   8.947271 C.ar        1 UNL1     -0.0198
     23 C         -6.579104   1.522355   9.084206 C.ar        1 UNL1     -0.0516
     24 O         -9.23547   3.544749   7.567506 O.3        1 UNL1     -0.5068
     25 O         -5.826487   -2.462835   8.235506 O.2        1 UNL1     -0.2917
     26 O         -5.846715   -3.400572   5.707905 O.3        1 UNL1     -0.5058
     27 O         -0.233048   -0.199837   2.540804 O.3        1 UNL1     -0.3648
     28 O         0.261949   -1.952458   -0.574557 O.3        1 UNL1     -0.3841
     29 O         -2.458783   0.361162   -0.265322 O.3        1 UNL1     -0.3863
     30 O         -2.454134   -3.312795   -0.219153 O.3        1 UNL1     -0.3829
     31 H         0.617658   -1.851141   1.814525 H        1 UNL1     0.0937
     32 H         0.0   0.0   0.0 H        1 UNL1     0.0671
     33 H         -1.867661   -1.189451   -1.418541 H        1 UNL1     0.0649
     34 H         -3.846781   -1.829486   0.049666 H        1 UNL1     0.0683
     35 H         -3.2086   -2.94019   2.140912 H        1 UNL1     0.1085
     36 H         -4.851888   -2.958133   3.400986 H        1 UNL1     0.0691
     37 H         -2.794907   0.675325   4.495065 H        1 UNL1     0.0691
     38 H         -3.402391   -1.04849   9.015247 H        1 UNL1     0.0385
     39 H         -4.968669   -0.632524   9.737942 H        1 UNL1     0.0385
     40 H         -3.719303   1.362971   8.828857 H        1 UNL1     0.0789
     41 H         -5.360859   1.954965   5.93405 H        1 UNL1     0.0623
     42 H         -7.485562   3.177286   5.702206 H        1 UNL1     0.0654
     43 H         -8.449464   2.301658   9.795317 H        1 UNL1     0.0654
     44 H         -6.376774   1.057509   10.044323 H        1 UNL1     0.0623
     45 H         -8.998989   4.463231   7.359695 H        1 UNL1     0.2921
     46 H         -5.454655   -3.921222   6.426671 H        1 UNL1     0.2922
     47 H         0.506712   0.357209   2.260958 H        1 UNL1     0.2126
     48 H         1.201011   -1.86221   -0.322068 H        1 UNL1     0.2101
     49 H         -2.022134   0.94243   -0.908175 H        1 UNL1     0.2100
     50 H         -2.690554   -3.324909   -1.169769 H        1 UNL1     0.2102
@<TRIPOS>BOND
     1     1     2    1
     2     1     6    1
     3     2     3    1
     4     3     4    1
     5     3    29    1
     6     3    33    1
     7     4     5    1
     8     5     6    1
     9     5     7    1
    10     5    35    1
    11     7     8    1
    12     8     9   ar
    13     8    13   ar
    14     9    10   ar
    15     9    36    1
    16    10    11   ar
    17    10    26    1
    18    11    12   ar
    19    11    14    1
    20    12    13   ar
    21    12    17    1
    22    13    37    1
    23    14    15    1
    24    14    25    2
    25    15    16    1
    26    15    38    1
    27    15    39    1
    28    16    17    1
    29    16    18    1
    30    16    40    1
    31    18    19   ar
    32    18    23   ar
    33    19    20   ar
    34    19    41    1
    35    20    21   ar
    36    20    42    1
    37    21    22   ar
    38    21    24    1
    39    22    23   ar
    40    22    43    1
    41    23    44    1
    42    24    45    1
    43    26    46    1
    44    27    47    1
    45    28    48    1
    46    29    49    1
    47    30    50    1
    48     1    31    1
    49     1    27    1
    50     2    32    1
    51     2    28    1
    52     4    34    1
    53     4    30    1
