@<TRIPOS>MOLECULE
*****
 50 53 0 0 0
SMALL
GASTEIGER

@<TRIPOS>ATOM
     1 C         -0.335291   -1.330437   1.699506 C.3        1 UNL1     0.1889
     2 C         -0.463982   -0.975046   0.193825 C.3        1 UNL1     0.1342
     3 C         -1.904341   -0.959687   -0.340584 C.3        1 UNL1     0.1174
     4 C         -2.792684   -2.018709   0.317016 C.3        1 UNL1     0.1456
     5 C         -2.642413   -2.046577   1.84901 C.3        1 UNL1     0.2326
     6 O         -1.278121   -2.267089   2.199656 O.3        1 UNL1     -0.3076
     7 O         -3.216295   -0.899716   2.502225 O.3        1 UNL1     -0.4605
     8 C         -3.727628   -1.11644   3.769149 C.ar        1 UNL1     0.1310
     9 C         -4.545566   -2.189058   4.140322 C.ar        1 UNL1     0.0226
     10 C         -5.000116   -2.330849   5.456826 C.ar        1 UNL1     0.1343
     11 C         -4.627855   -1.415532   6.44042 C.ar        1 UNL1     0.1007
     12 C         -3.845088   -0.317781   6.072991 C.ar        1 UNL1     0.1389
     13 C         -3.390345   -0.173996   4.748618 C.ar        1 UNL1     0.0229
     14 C         -5.010225   -1.563005   7.863866 C.2        1 UNL1     0.1740
     15 C         -4.341276   -0.61688   8.81723 C.3        1 UNL1     0.0520
     16 C         -4.269761   0.755972   8.162921 C.3        1 UNL1     0.1322
     17 O         -3.509913   0.700066   6.935495 O.3        1 UNL1     -0.4828
     18 C         -5.628111   1.450065   8.037043 C.ar        1 UNL1     -0.0067
     19 C         -6.004065   2.017541   6.802198 C.ar        1 UNL1     -0.0516
     20 C         -7.218425   2.700649   6.665611 C.ar        1 UNL1     -0.0198
     21 C         -8.060321   2.829224   7.755798 C.ar        1 UNL1     0.1169
     22 C         -7.73313   2.252455   8.976094 C.ar        1 UNL1     -0.0198
     23 C         -6.527318   1.55342   9.108089 C.ar        1 UNL1     -0.0516
     24 O         -9.217038   3.533839   7.594786 O.3        1 UNL1     -0.5068
     25 O         -5.760427   -2.44447   8.274597 O.2        1 UNL1     -0.2917
     26 O         -5.795924   -3.398719   5.753351 O.3        1 UNL1     -0.5058
     27 O         -0.2291   -0.193636   2.541643 O.3        1 UNL1     -0.3648
     28 O         0.265821   -1.953349   -0.56973 O.3        1 UNL1     -0.3841
     29 O         -2.459997   0.354598   -0.262905 O.3        1 UNL1     -0.3863
     30 O         -2.446522   -3.319201   -0.206989 O.3        1 UNL1     -0.3829
     31 H         0.62455   -1.844834   1.818584 H        1 UNL1     0.0937
     32 H         0.0   0.0   0.0 H        1 UNL1     0.0671
     33 H         -1.866754   -1.197662   -1.412813 H        1 UNL1     0.0649
     34 H         -3.842335   -1.838504   0.059802 H        1 UNL1     0.0683
     35 H         -3.19865   -2.942122   2.153112 H        1 UNL1     0.1085
     36 H         -4.824114   -2.964426   3.435101 H        1 UNL1     0.0691
     37 H         -2.783068   0.690147   4.487919 H        1 UNL1     0.0691
     38 H         -3.339583   -1.008423   9.024192 H        1 UNL1     0.0385
     39 H         -4.902426   -0.598574   9.757738 H        1 UNL1     0.0385
     40 H         -3.674832   1.399536   8.825043 H        1 UNL1     0.0789
     41 H         -5.356529   1.938248   5.933831 H        1 UNL1     0.0623
     42 H         -7.491608   3.144107   5.711291 H        1 UNL1     0.0654
     43 H         -8.39204   2.334179   9.832289 H        1 UNL1     0.0654
     44 H         -6.308593   1.106495   10.073109 H        1 UNL1     0.0623
     45 H         -8.989487   4.443571   7.343142 H        1 UNL1     0.2921
     46 H         -5.393386   -3.912753   6.471087 H        1 UNL1     0.2922
     47 H         0.514891   0.359476   2.265233 H        1 UNL1     0.2126
     48 H         1.199545   -1.885351   -0.29176 H        1 UNL1     0.2101
     49 H         -2.019889   0.937272   -0.902115 H        1 UNL1     0.2100
     50 H         -2.678988   -3.332484   -1.158564 H        1 UNL1     0.2102
@<TRIPOS>BOND
     1     1     2    1
     2     1     6    1
     3     2     3    1
     4     3     4    1
     5     3    29    1
     6     3    33    1
     7     4     5    1
     8     5     6    1
     9     5     7    1
    10     5    35    1
    11     7     8    1
    12     8     9   ar
    13     8    13   ar
    14     9    10   ar
    15     9    36    1
    16    10    11   ar
    17    10    26    1
    18    11    12   ar
    19    11    14    1
    20    12    13   ar
    21    12    17    1
    22    13    37    1
    23    14    15    1
    24    14    25    2
    25    15    16    1
    26    15    38    1
    27    15    39    1
    28    16    17    1
    29    16    18    1
    30    16    40    1
    31    18    19   ar
    32    18    23   ar
    33    19    20   ar
    34    19    41    1
    35    20    21   ar
    36    20    42    1
    37    21    22   ar
    38    21    24    1
    39    22    23   ar
    40    22    43    1
    41    23    44    1
    42    24    45    1
    43    26    46    1
    44    27    47    1
    45    28    48    1
    46    29    49    1
    47    30    50    1
    48     1    31    1
    49     1    27    1
    50     2    32    1
    51     2    28    1
    52     4    34    1
    53     4    30    1
