@<TRIPOS>MOLECULE
*****
 50 53 0 0 0
SMALL
GASTEIGER

@<TRIPOS>ATOM
     1 C         -1.112116   0.5491   1.797913 C.3        1 UNL1     0.1889
     2 C         -0.828624   0.663927   0.275945 C.3        1 UNL1     0.1342
     3 C         -0.514889   2.086458   -0.21236 C.3        1 UNL1     0.1174
     4 C         -1.299374   3.160546   0.545291 C.3        1 UNL1     0.1456
     5 C         -1.268107   2.949031   2.069971 C.3        1 UNL1     0.2326
     6 O         -1.774759   1.655733   2.391767 O.3        1 UNL1     -0.3076
     7 O         0.017426   3.215922   2.659457 O.3        1 UNL1     -0.4605
     8 C         0.31685   4.547706   2.883561 C.ar        1 UNL1     0.1310
     9 C         -0.479663   5.632698   2.501904 C.ar        1 UNL1     0.0226
     10 C         -0.097126   6.94816   2.79022 C.ar        1 UNL1     0.1343
     11 C         1.080733   7.209586   3.488894 C.ar        1 UNL1     0.1007
     12 C         1.904703   6.136674   3.839201 C.ar        1 UNL1     0.1389
     13 C         1.521142   4.814234   3.546857 C.ar        1 UNL1     0.0229
     14 C         1.491181   8.574178   3.893341 C.2        1 UNL1     0.1740
     15 C         2.663322   8.649645   4.827118 C.3        1 UNL1     0.0520
     16 C         3.694353   7.618006   4.390478 C.3        1 UNL1     0.1322
     17 O         3.136654   6.285994   4.432722 O.3        1 UNL1     -0.4828
     18 C         4.399763   7.969053   3.078272 C.ar        1 UNL1     -0.0067
     19 C         4.952336   9.255572   2.911699 C.ar        1 UNL1     -0.0516
     20 C         5.56241   9.624836   1.706952 C.ar        1 UNL1     -0.0198
     21 C         5.619635   8.721175   0.661032 C.ar        1 UNL1     0.1169
     22 C         5.114174   7.435775   0.806272 C.ar        1 UNL1     -0.0198
     23 C         4.520485   7.060161   2.017265 C.ar        1 UNL1     -0.0516
     24 O         6.18767   9.128938   -0.510064 O.3        1 UNL1     -0.5068
     25 O         0.881166   9.588638   3.565873 O.2        1 UNL1     -0.2917
     26 O         -0.918099   7.961577   2.389502 O.3        1 UNL1     -0.5058
     27 O         0.018713   0.147941   2.554936 O.3        1 UNL1     -0.3648
     28 O         -1.99298   0.212214   -0.44025 O.3        1 UNL1     -0.3841
     29 O         0.894176   2.324484   -0.208971 O.3        1 UNL1     -0.3863
     30 O         -2.673931   3.144039   0.102559 O.3        1 UNL1     -0.3829
     31 H         -1.825257   -0.273141   1.922123 H        1 UNL1     0.0937
     32 H         0.0   0.0   0.0 H        1 UNL1     0.0671
     33 H         -0.819695   2.154174   -1.266033 H        1 UNL1     0.0649
     34 H         -0.898562   4.152591   0.309501 H        1 UNL1     0.0683
     35 H         -1.99161   3.679458   2.453245 H        1 UNL1     0.1085
     36 H         -1.433815   5.492961   2.00573 H        1 UNL1     0.0691
     37 H         2.18084   3.996601   3.829292 H        1 UNL1     0.0691
     38 H         2.296285   8.438213   5.837121 H        1 UNL1     0.0385
     39 H         3.066224   9.668135   4.815835 H        1 UNL1     0.0385
     40 H         4.485607   7.608644   5.152285 H        1 UNL1     0.0789
     41 H         4.91205   9.986095   3.714422 H        1 UNL1     0.0623
     42 H         5.974236   10.62381   1.586686 H        1 UNL1     0.0654
     43 H         5.167131   6.715276   -0.001185 H        1 UNL1     0.0654
     44 H         4.145527   6.044529   2.099381 H        1 UNL1     0.0623
     45 H         6.513956   10.03591   -0.393203 H        1 UNL1     0.2921
     46 H         -1.683169   7.592078   1.920941 H        1 UNL1     0.2922
     47 H         0.177095   -0.799882   2.443549 H        1 UNL1     0.2126
     48 H         -1.72707   -0.590785   -0.928324 H        1 UNL1     0.2101
     49 H         1.073383   3.248278   -0.446213 H        1 UNL1     0.2100
     50 H         -3.036662   4.047512   0.211539 H        1 UNL1     0.2102
@<TRIPOS>BOND
     1     1     2    1
     2     1     6    1
     3     2     3    1
     4     3     4    1
     5     3    29    1
     6     3    33    1
     7     4     5    1
     8     5     6    1
     9     5     7    1
    10     5    35    1
    11     7     8    1
    12     8     9   ar
    13     8    13   ar
    14     9    10   ar
    15     9    36    1
    16    10    11   ar
    17    10    26    1
    18    11    12   ar
    19    11    14    1
    20    12    13   ar
    21    12    17    1
    22    13    37    1
    23    14    15    1
    24    14    25    2
    25    15    16    1
    26    15    38    1
    27    15    39    1
    28    16    17    1
    29    16    18    1
    30    16    40    1
    31    18    19   ar
    32    18    23   ar
    33    19    20   ar
    34    19    41    1
    35    20    21   ar
    36    20    42    1
    37    21    22   ar
    38    21    24    1
    39    22    23   ar
    40    22    43    1
    41    23    44    1
    42    24    45    1
    43    26    46    1
    44    27    47    1
    45    28    48    1
    46    29    49    1
    47    30    50    1
    48     1    31    1
    49     1    27    1
    50     2    32    1
    51     2    28    1
    52     4    34    1
    53     4    30    1
