@<TRIPOS>MOLECULE
*****
 50 53 0 0 0
SMALL
GASTEIGER

@<TRIPOS>ATOM
     1 C         -0.336054   -1.331574   1.698465 C.3        1 UNL1     0.1889
     2 C         -0.464638   -0.974881   0.193083 C.3        1 UNL1     0.1342
     3 C         -1.905036   -0.958095   -0.34118 C.3        1 UNL1     0.1174
     4 C         -2.79405   -2.017031   0.315649 C.3        1 UNL1     0.1456
     5 C         -2.643657   -2.046238   1.847607 C.3        1 UNL1     0.2326
     6 O         -1.279486   -2.267976   2.197948 O.3        1 UNL1     -0.3076
     7 O         -3.216685   -0.899507   2.501798 O.3        1 UNL1     -0.4605
     8 C         -3.728051   -1.116898   3.768595 C.ar        1 UNL1     0.1310
     9 C         -4.54705   -2.189014   4.138877 C.ar        1 UNL1     0.0226
     10 C         -5.001548   -2.331578   5.455316 C.ar        1 UNL1     0.1343
     11 C         -4.628182   -1.417581   6.439719 C.ar        1 UNL1     0.1007
     12 C         -3.844326   -0.3203   6.073211 C.ar        1 UNL1     0.1389
     13 C         -3.389635   -0.175735   4.748904 C.ar        1 UNL1     0.0229
     14 C         -5.010488   -1.566005   7.863084 C.2        1 UNL1     0.1740
     15 C         -4.340408   -0.621481   8.817241 C.3        1 UNL1     0.0520
     16 C         -4.267561   0.751915   8.164222 C.3        1 UNL1     0.1322
     17 O         -3.507959   0.696379   6.936627 O.3        1 UNL1     -0.4828
     18 C         -5.625206   1.447543   8.039211 C.ar        1 UNL1     -0.0067
     19 C         -6.000755   2.01658   6.804961 C.ar        1 UNL1     -0.0516
     20 C         -7.214423   2.701083   6.669208 C.ar        1 UNL1     -0.0198
     21 C         -8.056019   2.829503   7.759645 C.ar        1 UNL1     0.1169
     22 C         -7.729243   2.251238   8.979344 C.ar        1 UNL1     -0.0198
     23 C         -6.524141   1.550821   9.110492 C.ar        1 UNL1     -0.0516
     24 O         -9.212024   3.535476   7.599478 O.3        1 UNL1     -0.5068
     25 O         -5.761548   -2.447076   8.273095 O.2        1 UNL1     -0.2917
     26 O         -5.798424   -3.398898   5.750952 O.3        1 UNL1     -0.5058
     27 O         -0.228999   -0.195526   2.541508 O.3        1 UNL1     -0.3648
     28 O         0.264417   -1.953073   -0.571329 O.3        1 UNL1     -0.3841
     29 O         -2.459776   0.356511   -0.262391 O.3        1 UNL1     -0.3863
     30 O         -2.448836   -3.31734   -0.209435 O.3        1 UNL1     -0.3829
     31 H         0.623442   -1.846731   1.817039 H        1 UNL1     0.0937
     32 H         0.0   0.0   0.0 H        1 UNL1     0.0671
     33 H         -1.867713   -1.195232   -1.413604 H        1 UNL1     0.0649
     34 H         -3.8436   -1.835894   0.058678 H        1 UNL1     0.0683
     35 H         -3.200485   -2.941643   2.151039 H        1 UNL1     0.1085
     36 H         -4.826514   -2.963422   3.432965 H        1 UNL1     0.0691
     37 H         -2.781498   0.688022   4.488931 H        1 UNL1     0.0691
     38 H         -3.339093   -1.014265   9.023678 H        1 UNL1     0.0385
     39 H         -4.901395   -0.603481   9.757852 H        1 UNL1     0.0385
     40 H         -3.67186   1.39423   8.826862 H        1 UNL1     0.0789
     41 H         -5.353435   1.937435   5.93642 H        1 UNL1     0.0623
     42 H         -7.487289   3.145729   5.71535 H        1 UNL1     0.0654
     43 H         -8.387937   2.332837   9.835717 H        1 UNL1     0.0654
     44 H         -6.305735   1.102753   10.075054 H        1 UNL1     0.0623
     45 H         -8.983563   4.445208   7.348662 H        1 UNL1     0.2921
     46 H         -5.397003   -3.913255   6.469081 H        1 UNL1     0.2922
     47 H         0.51366   0.358714   2.263776 H        1 UNL1     0.2126
     48 H         1.200034   -1.878153   -0.301625 H        1 UNL1     0.2101
     49 H         -2.019324   0.939396   -0.901172 H        1 UNL1     0.2100
     50 H         -2.686624   -3.331615   -1.15968 H        1 UNL1     0.2102
@<TRIPOS>BOND
     1     1     2    1
     2     1     6    1
     3     2     3    1
     4     3     4    1
     5     3    29    1
     6     3    33    1
     7     4     5    1
     8     5     6    1
     9     5     7    1
    10     5    35    1
    11     7     8    1
    12     8     9   ar
    13     8    13   ar
    14     9    10   ar
    15     9    36    1
    16    10    11   ar
    17    10    26    1
    18    11    12   ar
    19    11    14    1
    20    12    13   ar
    21    12    17    1
    22    13    37    1
    23    14    15    1
    24    14    25    2
    25    15    16    1
    26    15    38    1
    27    15    39    1
    28    16    17    1
    29    16    18    1
    30    16    40    1
    31    18    19   ar
    32    18    23   ar
    33    19    20   ar
    34    19    41    1
    35    20    21   ar
    36    20    42    1
    37    21    22   ar
    38    21    24    1
    39    22    23   ar
    40    22    43    1
    41    23    44    1
    42    24    45    1
    43    26    46    1
    44    27    47    1
    45    28    48    1
    46    29    49    1
    47    30    50    1
    48     1    31    1
    49     1    27    1
    50     2    32    1
    51     2    28    1
    52     4    34    1
    53     4    30    1
