@<TRIPOS>MOLECULE
*****
 50 53 0 0 0
SMALL
GASTEIGER

@<TRIPOS>ATOM
     1 C         -0.501305   -1.186461   1.764031 C.3        1 UNL1     0.1889
     2 C         -0.5028   -0.94752   0.230133 C.3        1 UNL1     0.1342
     3 C         -1.896156   -0.945548   -0.417183 C.3        1 UNL1     0.1174
     4 C         -2.860262   -1.932083   0.246419 C.3        1 UNL1     0.1456
     5 C         -2.830831   -1.842938   1.783153 C.3        1 UNL1     0.2326
     6 O         -1.504252   -2.062269   2.257442 O.3        1 UNL1     -0.3076
     7 O         -3.424059   -0.637349   2.298863 O.3        1 UNL1     -0.4605
     8 C         -4.037776   -0.743994   3.533977 C.ar        1 UNL1     0.1310
     9 C         -4.90978   -1.767713   3.919862 C.ar        1 UNL1     0.0226
     10 C         -5.468803   -1.796923   5.203039 C.ar        1 UNL1     0.1343
     11 C         -5.150356   -0.815056   6.140252 C.ar        1 UNL1     0.1007
     12 C         -4.31304   0.234711   5.753372 C.ar        1 UNL1     0.1389
     13 C         -3.753161   0.265288   4.462236 C.ar        1 UNL1     0.0229
     14 C         -5.645901   -0.843002   7.535891 C.2        1 UNL1     0.1740
     15 C         -5.028612   0.161279   8.464289 C.3        1 UNL1     0.0520
     16 C         -4.870687   1.477007   7.714705 C.3        1 UNL1     0.1322
     17 O         -4.019471   1.310038   6.559446 O.3        1 UNL1     -0.4828
     18 C         -6.196581   2.186122   7.42855 C.ar        1 UNL1     -0.0067
     19 C         -6.461692   2.660133   6.127303 C.ar        1 UNL1     -0.0516
     20 C         -7.64354   3.354525   5.842666 C.ar        1 UNL1     -0.0198
     21 C         -8.562794   3.587227   6.849963 C.ar        1 UNL1     0.1169
     22 C         -8.345416   3.103776   8.133653 C.ar        1 UNL1     -0.0198
     23 C         -7.172157   2.393316   8.414306 C.ar        1 UNL1     -0.0516
     24 O         -9.684749   4.299924   6.543888 O.3        1 UNL1     -0.5068
     25 O         -6.448487   -1.674451   7.951864 O.2        1 UNL1     -0.2917
     26 O         -6.312828   -2.822196   5.516128 O.3        1 UNL1     -0.5058
     27 O         -0.431776   0.010435   2.522577 O.3        1 UNL1     -0.3648
     28 O         0.258802   -1.996819   -0.395679 O.3        1 UNL1     -0.3841
     29 O         -2.421949   0.381516   -0.484825 O.3        1 UNL1     -0.3863
     30 O         -2.50805   -3.276186   -0.14731 O.3        1 UNL1     -0.3829
     31 H         0.432661   -1.708843   1.998346 H        1 UNL1     0.0937
     32 H         0.0   0.0   0.0 H        1 UNL1     0.0671
     33 H         -1.781148   -1.267404   -1.461646 H        1 UNL1     0.0649
     34 H         -3.881607   -1.751838   -0.106806 H        1 UNL1     0.0683
     35 H         -3.432124   -2.700761   2.109443 H        1 UNL1     0.1085
     36 H         -5.152811   -2.590175   3.256076 H        1 UNL1     0.0691
     37 H         -3.105132   1.094071   4.185342 H        1 UNL1     0.0691
     38 H         -4.056586   -0.232802   8.779552 H        1 UNL1     0.0385
     39 H         -5.660483   0.264346   9.35305 H        1 UNL1     0.0385
     40 H         -4.312428   2.158401   8.370883 H        1 UNL1     0.0789
     41 H         -5.751852   2.498287   5.321335 H        1 UNL1     0.0623
     42 H         -7.830989   3.725382   4.838006 H        1 UNL1     0.0654
     43 H         -9.065597   3.267297   8.92644 H        1 UNL1     0.0654
     44 H         -7.039898   2.020965   9.425596 H        1 UNL1     0.0623
     45 H         -9.414366   5.179563   6.2343 H        1 UNL1     0.2921
     46 H         -5.980826   -3.28642   6.300782 H        1 UNL1     0.2922
     47 H         0.345697   0.525316   2.265101 H        1 UNL1     0.2126
     48 H         1.167877   -1.929756   -0.045226 H        1 UNL1     0.2101
     49 H         -1.918223   0.90361   -1.129396 H        1 UNL1     0.2100
     50 H         -2.66578   -3.359298   -1.110599 H        1 UNL1     0.2102
@<TRIPOS>BOND
     1     1     2    1
     2     1     6    1
     3     2     3    1
     4     3     4    1
     5     3    29    1
     6     3    33    1
     7     4     5    1
     8     5     6    1
     9     5     7    1
    10     5    35    1
    11     7     8    1
    12     8     9   ar
    13     8    13   ar
    14     9    10   ar
    15     9    36    1
    16    10    11   ar
    17    10    26    1
    18    11    12   ar
    19    11    14    1
    20    12    13   ar
    21    12    17    1
    22    13    37    1
    23    14    15    1
    24    14    25    2
    25    15    16    1
    26    15    38    1
    27    15    39    1
    28    16    17    1
    29    16    18    1
    30    16    40    1
    31    18    19   ar
    32    18    23   ar
    33    19    20   ar
    34    19    41    1
    35    20    21   ar
    36    20    42    1
    37    21    22   ar
    38    21    24    1
    39    22    23   ar
    40    22    43    1
    41    23    44    1
    42    24    45    1
    43    26    46    1
    44    27    47    1
    45    28    48    1
    46    29    49    1
    47    30    50    1
    48     1    31    1
    49     1    27    1
    50     2    32    1
    51     2    28    1
    52     4    34    1
    53     4    30    1
