@<TRIPOS>MOLECULE
*****
 50 53 0 0 0
SMALL
GASTEIGER

@<TRIPOS>ATOM
     1 C         -0.322634   -1.313691   1.714913 C.3        1 UNL1     0.1889
     2 C         -0.473539   -0.96724   0.209211 C.3        1 UNL1     0.1342
     3 C         -1.922926   -0.936044   -0.299484 C.3        1 UNL1     0.1174
     4 C         -2.813522   -1.97819   0.38161 C.3        1 UNL1     0.1456
     5 C         -2.636151   -1.997264   1.910839 C.3        1 UNL1     0.2326
     6 O         -1.268881   -2.233852   2.238664 O.3        1 UNL1     -0.3076
     7 O         -3.182683   -0.838101   2.565791 O.3        1 UNL1     -0.4605
     8 C         -3.674058   -1.038873   3.843198 C.ar        1 UNL1     0.1310
     9 C         -4.499948   -2.097359   4.236662 C.ar        1 UNL1     0.0226
     10 C         -4.932624   -2.223656   5.562084 C.ar        1 UNL1     0.1343
     11 C         -4.530064   -1.306834   6.53225 C.ar        1 UNL1     0.1007
     12 C         -3.73892   -0.222701   6.14298 C.ar        1 UNL1     0.1389
     13 C         -3.306166   -0.094467   4.809672 C.ar        1 UNL1     0.0229
     14 C         -4.88873   -1.43908   7.963342 C.2        1 UNL1     0.1740
     15 C         -4.189677   -0.495809   8.897747 C.3        1 UNL1     0.0520
     16 C         -4.110962   0.871342   8.232419 C.3        1 UNL1     0.1322
     17 O         -3.374199   0.796318   6.992007 O.3        1 UNL1     -0.4828
     18 C         -5.461619   1.583457   8.125922 C.ar        1 UNL1     -0.0067
     19 C         -5.851868   2.147558   6.893968 C.ar        1 UNL1     -0.0516
     20 C         -7.058917   2.846603   6.774262 C.ar        1 UNL1     -0.0198
     21 C         -7.879173   2.994482   7.878408 C.ar        1 UNL1     0.1169
     22 C         -7.538065   2.421671   9.096756 C.ar        1 UNL1     -0.0198
     23 C         -6.339865   1.706787   9.212139 C.ar        1 UNL1     -0.0516
     24 O         -9.028737   3.714057   7.733094 O.3        1 UNL1     -0.5068
     25 O         -5.643543   -2.307109   8.39377 O.2        1 UNL1     -0.2917
     26 O         -5.737669   -3.278222   5.880483 O.3        1 UNL1     -0.5058
     27 O         -0.186008   -0.172514   2.546679 O.3        1 UNL1     -0.3648
     28 O         0.229167   -1.96077   -0.56008 O.3        1 UNL1     -0.3841
     29 O         -2.459314   0.386204   -0.221511 O.3        1 UNL1     -0.3863
     30 O         -2.494404   -3.286951   -0.138964 O.3        1 UNL1     -0.3829
     31 H         0.632163   -1.840259   1.820588 H        1 UNL1     0.0937
     32 H         0.0   0.0   0.0 H        1 UNL1     0.0671
     33 H         -1.907815   -1.182089   -1.370443 H        1 UNL1     0.0649
     34 H         -3.865096   -1.785529   0.141874 H        1 UNL1     0.0683
     35 H         -3.198868   -2.882977   2.231372 H        1 UNL1     0.1085
     36 H         -4.801866   -2.873629   3.542132 H        1 UNL1     0.0691
     37 H         -2.691779   0.75928   4.531934 H        1 UNL1     0.0691
     38 H         -3.189935   -0.899865   9.089532 H        1 UNL1     0.0385
     39 H         -4.733483   -0.463145   9.848003 H        1 UNL1     0.0385
     40 H         -3.495346   1.511104   8.879135 H        1 UNL1     0.0789
     41 H         -5.221243   2.053208   6.014729 H        1 UNL1     0.0623
     42 H         -7.343085   3.287209   5.82183 H        1 UNL1     0.0654
     43 H         -8.180247   2.518526   9.964011 H        1 UNL1     0.0654
     44 H         -6.109997   1.263549   10.176269 H        1 UNL1     0.0623
     45 H         -8.793183   4.618755   7.470887 H        1 UNL1     0.2921
     46 H         -5.330083   -3.79205   6.595512 H        1 UNL1     0.2922
     47 H         0.558593   0.369873   2.251305 H        1 UNL1     0.2126
     48 H         1.170338   -1.89583   -0.307666 H        1 UNL1     0.2101
     49 H         -2.022935   0.958293   -0.872726 H        1 UNL1     0.2100
     50 H         -2.744081   -3.303798   -1.086113 H        1 UNL1     0.2102
@<TRIPOS>BOND
     1     1     2    1
     2     1     6    1
     3     2     3    1
     4     3     4    1
     5     3    29    1
     6     3    33    1
     7     4     5    1
     8     5     6    1
     9     5     7    1
    10     5    35    1
    11     7     8    1
    12     8     9   ar
    13     8    13   ar
    14     9    10   ar
    15     9    36    1
    16    10    11   ar
    17    10    26    1
    18    11    12   ar
    19    11    14    1
    20    12    13   ar
    21    12    17    1
    22    13    37    1
    23    14    15    1
    24    14    25    2
    25    15    16    1
    26    15    38    1
    27    15    39    1
    28    16    17    1
    29    16    18    1
    30    16    40    1
    31    18    19   ar
    32    18    23   ar
    33    19    20   ar
    34    19    41    1
    35    20    21   ar
    36    20    42    1
    37    21    22   ar
    38    21    24    1
    39    22    23   ar
    40    22    43    1
    41    23    44    1
    42    24    45    1
    43    26    46    1
    44    27    47    1
    45    28    48    1
    46    29    49    1
    47    30    50    1
    48     1    31    1
    49     1    27    1
    50     2    32    1
    51     2    28    1
    52     4    34    1
    53     4    30    1
