@<TRIPOS>MOLECULE
*****
 50 53 0 0 0
SMALL
GASTEIGER

@<TRIPOS>ATOM
     1 C         -0.330299   -1.355733   1.680385 C.3        1 UNL1     0.1889
     2 C         -0.466493   -0.976265   0.181254 C.3        1 UNL1     0.1342
     3 C         -1.909898   -0.947238   -0.344298 C.3        1 UNL1     0.1174
     4 C         -2.798333   -2.0132   0.301865 C.3        1 UNL1     0.1456
     5 C         -2.639175   -2.06568   1.832315 C.3        1 UNL1     0.2326
     6 O         -1.273686   -2.296667   2.171363 O.3        1 UNL1     -0.3076
     7 O         -3.204902   -0.927128   2.506832 O.3        1 UNL1     -0.4605
     8 C         -3.719819   -1.164228   3.768645 C.ar        1 UNL1     0.1310
     9 C         -4.547149   -2.237032   4.11781 C.ar        1 UNL1     0.0226
     10 C         -5.004735   -2.400653   5.430726 C.ar        1 UNL1     0.1343
     11 C         -4.626299   -1.507795   6.43244 C.ar        1 UNL1     0.1007
     12 C         -3.833936   -0.409644   6.087464 C.ar        1 UNL1     0.1389
     13 C         -3.37613   -0.243878   4.766719 C.ar        1 UNL1     0.0229
     14 C         -5.011906   -1.67978   7.852258 C.2        1 UNL1     0.1740
     15 C         -4.336495   -0.758   8.824724 C.3        1 UNL1     0.0520
     16 C         -4.25267   0.626694   8.197385 C.3        1 UNL1     0.1322
     17 O         -3.491563   0.588388   6.970063 O.3        1 UNL1     -0.4828
     18 C         -5.605037   1.33438   8.083343 C.ar        1 UNL1     -0.0067
     19 C         -5.968131   1.94182   6.863756 C.ar        1 UNL1     -0.0516
     20 C         -7.17652   2.637779   6.739663 C.ar        1 UNL1     -0.0198
     21 C         -8.025155   2.739505   7.827458 C.ar        1 UNL1     0.1169
     22 C         -7.710786   2.123582   9.031887 C.ar        1 UNL1     -0.0198
     23 C         -6.511027   1.411906   9.150848 C.ar        1 UNL1     -0.0516
     24 O         -9.175576   3.457272   7.679999 O.3        1 UNL1     -0.5068
     25 O         -5.769975   -2.562808   8.244785 O.2        1 UNL1     -0.2917
     26 O         -5.80979   -3.46744   5.705378 O.3        1 UNL1     -0.5058
     27 O         -0.214898   -0.232698   2.539607 O.3        1 UNL1     -0.3648
     28 O         0.255135   -1.945119   -0.601868 O.3        1 UNL1     -0.3841
     29 O         -2.46015   0.36769   -0.242718 O.3        1 UNL1     -0.3863
     30 O         -2.460139   -3.306559   -0.244519 O.3        1 UNL1     -0.3829
     31 H         0.628286   -1.875449   1.785685 H        1 UNL1     0.0937
     32 H         0.0   0.0   0.0 H        1 UNL1     0.0671
     33 H         -1.879501   -1.168478   -1.420332 H        1 UNL1     0.0649
     34 H         -3.848793   -1.825135   0.053738 H        1 UNL1     0.0683
     35 H         -3.196976   -2.963849   2.125625 H        1 UNL1     0.1085
     36 H         -4.831111   -2.996173   3.397261 H        1 UNL1     0.0691
     37 H         -2.761339   0.620099   4.523678 H        1 UNL1     0.0691
     38 H         -3.338379   -1.161817   9.02528 H        1 UNL1     0.0385
     39 H         -4.898814   -0.75335   9.7647 H        1 UNL1     0.0385
     40 H         -3.653369   1.252269   8.872674 H        1 UNL1     0.0789
     41 H         -5.31506   1.884073   5.997838 H        1 UNL1     0.0623
     42 H         -7.439731   3.111989   5.797401 H        1 UNL1     0.0654
     43 H         -8.375127   2.184212   9.885634 H        1 UNL1     0.0654
     44 H         -6.302373   0.934311   10.103325 H        1 UNL1     0.0623
     45 H         -8.939364   4.37809   7.482476 H        1 UNL1     0.2921
     46 H         -5.413237   -3.997923   6.414424 H        1 UNL1     0.2922
     47 H         0.516655   0.332765   2.255107 H        1 UNL1     0.2126
     48 H         1.196124   -1.859357   -0.355052 H        1 UNL1     0.2101
     49 H         -2.027386   0.956751   -0.881088 H        1 UNL1     0.2100
     50 H         -2.703459   -3.305964   -1.19347 H        1 UNL1     0.2102
@<TRIPOS>BOND
     1     1     2    1
     2     1     6    1
     3     2     3    1
     4     3     4    1
     5     3    29    1
     6     3    33    1
     7     4     5    1
     8     5     6    1
     9     5     7    1
    10     5    35    1
    11     7     8    1
    12     8     9   ar
    13     8    13   ar
    14     9    10   ar
    15     9    36    1
    16    10    11   ar
    17    10    26    1
    18    11    12   ar
    19    11    14    1
    20    12    13   ar
    21    12    17    1
    22    13    37    1
    23    14    15    1
    24    14    25    2
    25    15    16    1
    26    15    38    1
    27    15    39    1
    28    16    17    1
    29    16    18    1
    30    16    40    1
    31    18    19   ar
    32    18    23   ar
    33    19    20   ar
    34    19    41    1
    35    20    21   ar
    36    20    42    1
    37    21    22   ar
    38    21    24    1
    39    22    23   ar
    40    22    43    1
    41    23    44    1
    42    24    45    1
    43    26    46    1
    44    27    47    1
    45    28    48    1
    46    29    49    1
    47    30    50    1
    48     1    31    1
    49     1    27    1
    50     2    32    1
    51     2    28    1
    52     4    34    1
    53     4    30    1
