@<TRIPOS>MOLECULE
*****
 50 53 0 0 0
SMALL
GASTEIGER

@<TRIPOS>ATOM
     1 C         -0.288925   -1.360186   1.684405 C.3        1 UNL1     0.1889
     2 C         -0.451727   -0.981992   0.187607 C.3        1 UNL1     0.1342
     3 C         -1.902923   -0.970604   -0.31674 C.3        1 UNL1     0.1174
     4 C         -2.7686   -2.04762   0.341863 C.3        1 UNL1     0.1456
     5 C         -2.586408   -2.098577   1.869794 C.3        1 UNL1     0.2326
     6 O         -1.213358   -2.312816   2.188702 O.3        1 UNL1     -0.3076
     7 O         -3.156176   -0.967278   2.553056 O.3        1 UNL1     -0.4605
     8 C         -3.638911   -1.208466   3.82676 C.ar        1 UNL1     0.1310
     9 C         -4.440069   -2.29376   4.197681 C.ar        1 UNL1     0.0226
     10 C         -4.865602   -2.460333   5.520964 C.ar        1 UNL1     0.1343
     11 C         -4.480172   -1.557652   6.511141 C.ar        1 UNL1     0.1007
     12 C         -3.714302   -0.447587   6.145105 C.ar        1 UNL1     0.1389
     13 C         -3.288758   -0.278894   4.813983 C.ar        1 UNL1     0.0229
     14 C         -4.831242   -1.730995   7.939726 C.2        1 UNL1     0.1740
     15 C         -4.150089   -0.794511   8.893967 C.3        1 UNL1     0.0520
     16 C         -4.10358   0.589135   8.26047 C.3        1 UNL1     0.1322
     17 O         -3.369337   0.559219   7.01666 O.3        1 UNL1     -0.4828
     18 C         -5.469896   1.273582   8.174247 C.ar        1 UNL1     -0.0067
     19 C         -5.877584   1.854971   6.956055 C.ar        1 UNL1     -0.0516
     20 C         -7.1001   2.529781   6.855806 C.ar        1 UNL1     -0.0198
     21 C         -7.918699   2.636226   7.965938 C.ar        1 UNL1     0.1169
     22 C         -7.560007   2.045343   9.170527 C.ar        1 UNL1     -0.0198
     23 C         -6.346011   1.3546   9.266151 C.ar        1 UNL1     -0.0516
     24 O         -9.084299   3.333358   7.840307 O.3        1 UNL1     -0.5068
     25 O         -5.565408   -2.625222   8.351847 O.2        1 UNL1     -0.2917
     26 O         -5.646248   -3.539506   5.816875 O.3        1 UNL1     -0.5058
     27 O         -0.174794   -0.236062   2.542372 O.3        1 UNL1     -0.3648
     28 O         0.270233   -1.941653   -0.606453 O.3        1 UNL1     -0.3841
     29 O         -2.467784   0.337414   -0.206496 O.3        1 UNL1     -0.3863
     30 O         -2.42254   -3.336555   -0.210022 O.3        1 UNL1     -0.3829
     31 H         0.677429   -1.86808   1.775414 H        1 UNL1     0.0937
     32 H         0.0   0.0   0.0 H        1 UNL1     0.0671
     33 H         -1.885567   -1.191141   -1.393207 H        1 UNL1     0.0649
     34 H         -3.824819   -1.872443   0.109232 H        1 UNL1     0.0683
     35 H         -3.128746   -3.003636   2.170818 H        1 UNL1     0.1085
     36 H         -4.727084   -3.060148   3.486068 H        1 UNL1     0.0691
     37 H         -2.694179   0.594414   4.554557 H        1 UNL1     0.0691
     38 H         -3.141097   -1.180776   9.073582 H        1 UNL1     0.0385
     39 H         -4.691424   -0.795936   9.846193 H        1 UNL1     0.0385
     40 H         -3.500097   1.227112   8.920254 H        1 UNL1     0.0789
     41 H         -5.248785   1.79311   6.072633 H        1 UNL1     0.0623
     42 H         -7.397852   2.984134   5.914043 H        1 UNL1     0.0654
     43 H         -8.200467   2.109708   10.042066 H        1 UNL1     0.0654
     44 H         -6.102437   0.896178   10.219758 H        1 UNL1     0.0623
     45 H         -8.86995   4.246759   7.590368 H        1 UNL1     0.2921
     46 H         -5.223902   -4.062117   6.516814 H        1 UNL1     0.2922
     47 H         0.558787   0.327717   2.259757 H        1 UNL1     0.2126
     48 H         1.207973   -1.874482   -0.342135 H        1 UNL1     0.2101
     49 H         -2.045697   0.934047   -0.844983 H        1 UNL1     0.2100
     50 H         -2.674544   -3.336697   -1.156704 H        1 UNL1     0.2102
@<TRIPOS>BOND
     1     1     2    1
     2     1     6    1
     3     2     3    1
     4     3     4    1
     5     3    29    1
     6     3    33    1
     7     4     5    1
     8     5     6    1
     9     5     7    1
    10     5    35    1
    11     7     8    1
    12     8     9   ar
    13     8    13   ar
    14     9    10   ar
    15     9    36    1
    16    10    11   ar
    17    10    26    1
    18    11    12   ar
    19    11    14    1
    20    12    13   ar
    21    12    17    1
    22    13    37    1
    23    14    15    1
    24    14    25    2
    25    15    16    1
    26    15    38    1
    27    15    39    1
    28    16    17    1
    29    16    18    1
    30    16    40    1
    31    18    19   ar
    32    18    23   ar
    33    19    20   ar
    34    19    41    1
    35    20    21   ar
    36    20    42    1
    37    21    22   ar
    38    21    24    1
    39    22    23   ar
    40    22    43    1
    41    23    44    1
    42    24    45    1
    43    26    46    1
    44    27    47    1
    45    28    48    1
    46    29    49    1
    47    30    50    1
    48     1    31    1
    49     1    27    1
    50     2    32    1
    51     2    28    1
    52     4    34    1
    53     4    30    1
