@<TRIPOS>MOLECULE
*****
 50 53 0 0 0
SMALL
GASTEIGER

@<TRIPOS>ATOM
     1 C         -0.370694   -1.397942   1.636811 C.3        1 UNL1     0.1889
     2 C         -0.487778   -0.971339   0.148778 C.3        1 UNL1     0.1342
     3 C         -1.926284   -0.896784   -0.385644 C.3        1 UNL1     0.1174
     4 C         -2.841245   -1.962831   0.222227 C.3        1 UNL1     0.1456
     5 C         -2.694729   -2.064068   1.75149 C.3        1 UNL1     0.2326
     6 O         -1.336859   -2.333292   2.092924 O.3        1 UNL1     -0.3076
     7 O         -3.242041   -0.934583   2.455788 O.3        1 UNL1     -0.4605
     8 C         -3.771204   -1.198357   3.706363 C.ar        1 UNL1     0.1310
     9 C         -4.614637   -2.269634   4.019868 C.ar        1 UNL1     0.0226
     10 C         -5.086044   -2.462013   5.323964 C.ar        1 UNL1     0.1343
     11 C         -4.705871   -1.600538   6.352152 C.ar        1 UNL1     0.1007
     12 C         -3.89713   -0.503601   6.043198 C.ar        1 UNL1     0.1389
     13 C         -3.425405   -0.308876   4.731334 C.ar        1 UNL1     0.0229
     14 C         -5.106378   -1.804977   7.763517 C.2        1 UNL1     0.1740
     15 C         -4.428647   -0.917502   8.765823 C.3        1 UNL1     0.0520
     16 C         -4.322324   0.482051   8.17599 C.3        1 UNL1     0.1322
     17 O         -3.550659   0.46658   6.954776 O.3        1 UNL1     -0.4828
     18 C         -5.664904   1.209186   8.068856 C.ar        1 UNL1     -0.0067
     19 C         -5.687336   2.572733   7.710455 C.ar        1 UNL1     -0.0516
     20 C         -6.894184   3.279679   7.649555 C.ar        1 UNL1     -0.0198
     21 C         -8.081948   2.637781   7.951234 C.ar        1 UNL1     0.1169
     22 C         -8.095581   1.28727   8.274919 C.ar        1 UNL1     -0.0198
     23 C         -6.890777   0.575474   8.317928 C.ar        1 UNL1     -0.0516
     24 O         -9.233434   3.368111   7.918087 O.3        1 UNL1     -0.5068
     25 O         -5.878645   -2.688556   8.125978 O.2        1 UNL1     -0.2917
     26 O         -5.906458   -3.525595   5.563338 O.3        1 UNL1     -0.5058
     27 O         -0.23875   -0.303576   2.529975 O.3        1 UNL1     -0.3648
     28 O         0.219698   -1.931241   -0.657926 O.3        1 UNL1     -0.3841
     29 O         -2.45019   0.42567   -0.248638 O.3        1 UNL1     -0.3863
     30 O         -2.525553   -3.246113   -0.360197 O.3        1 UNL1     -0.3829
     31 H         0.576206   -1.94032   1.733167 H        1 UNL1     0.0937
     32 H         0.0   0.0   0.0 H        1 UNL1     0.0671
     33 H         -1.892328   -1.086525   -1.467571 H        1 UNL1     0.0649
     34 H         -3.885726   -1.745736   -0.027432 H        1 UNL1     0.0683
     35 H         -3.273034   -2.9588   2.013973 H        1 UNL1     0.1085
     36 H         -4.901268   -3.006007   3.27709 H        1 UNL1     0.0691
     37 H         -2.797985   0.553508   4.516548 H        1 UNL1     0.0691
     38 H         -3.437368   -1.338781   8.964362 H        1 UNL1     0.0385
     39 H         -4.999354   -0.930585   9.70065 H        1 UNL1     0.0385
     40 H         -3.721604   1.082197   8.872754 H        1 UNL1     0.0789
     41 H         -4.767622   3.101623   7.477966 H        1 UNL1     0.0623
     42 H         -6.897163   4.33382   7.383491 H        1 UNL1     0.0654
     43 H         -9.021611   0.771054   8.4983 H        1 UNL1     0.0654
     44 H         -6.939701   -0.480852   8.564153 H        1 UNL1     0.0623
     45 H         -9.190257   4.040687   8.61701 H        1 UNL1     0.2921
     46 H         -5.634826   -3.965334   6.38447 H        1 UNL1     0.2922
     47 H         0.506374   0.254805   2.267561 H        1 UNL1     0.2126
     48 H         1.171852   -1.779259   -0.502885 H        1 UNL1     0.2101
     49 H         -2.134548   0.982866   -0.977813 H        1 UNL1     0.2100
     50 H         -2.782618   -3.219792   -1.305151 H        1 UNL1     0.2102
@<TRIPOS>BOND
     1     1     2    1
     2     1     6    1
     3     2     3    1
     4     3     4    1
     5     3    29    1
     6     3    33    1
     7     4     5    1
     8     5     6    1
     9     5     7    1
    10     5    35    1
    11     7     8    1
    12     8     9   ar
    13     8    13   ar
    14     9    10   ar
    15     9    36    1
    16    10    11   ar
    17    10    26    1
    18    11    12   ar
    19    11    14    1
    20    12    13   ar
    21    12    17    1
    22    13    37    1
    23    14    15    1
    24    14    25    2
    25    15    16    1
    26    15    38    1
    27    15    39    1
    28    16    17    1
    29    16    18    1
    30    16    40    1
    31    18    19   ar
    32    18    23   ar
    33    19    20   ar
    34    19    41    1
    35    20    21   ar
    36    20    42    1
    37    21    22   ar
    38    21    24    1
    39    22    23   ar
    40    22    43    1
    41    23    44    1
    42    24    45    1
    43    26    46    1
    44    27    47    1
    45    28    48    1
    46    29    49    1
    47    30    50    1
    48     1    31    1
    49     1    27    1
    50     2    32    1
    51     2    28    1
    52     4    34    1
    53     4    30    1
