@<TRIPOS>MOLECULE
*****
 50 53 0 0 0
SMALL
GASTEIGER

@<TRIPOS>ATOM
     1 C         -0.665947   -1.851112   0.949054 C.3        1 UNL1     0.1889
     2 C         0.005174   -1.075527   -0.21628 C.3        1 UNL1     0.1342
     3 C         -0.630884   -1.312559   -1.59458 C.3        1 UNL1     0.1174
     4 C         -1.150766   -2.741508   -1.77049 C.3        1 UNL1     0.1456
     5 C         -1.967927   -3.22563   -0.558781 C.3        1 UNL1     0.2326
     6 O         -1.180364   -3.134693   0.62627 O.3        1 UNL1     -0.3076
     7 O         -3.249349   -2.581781   -0.437386 O.3        1 UNL1     -0.4605
     8 C         -4.263298   -3.347766   0.10915 C.ar        1 UNL1     0.1310
     9 C         -4.550245   -4.674111   -0.231102 C.ar        1 UNL1     0.0226
     10 C         -5.590589   -5.372587   0.393173 C.ar        1 UNL1     0.1343
     11 C         -6.354708   -4.768665   1.390791 C.ar        1 UNL1     0.1007
     12 C         -6.104232   -3.43149   1.71018 C.ar        1 UNL1     0.1389
     13 C         -5.059831   -2.728561   1.080459 C.ar        1 UNL1     0.0229
     14 C         -7.410704   -5.486282   2.141824 C.2        1 UNL1     0.1740
     15 C         -7.975712   -4.756718   3.325062 C.3        1 UNL1     0.0520
     16 C         -8.137467   -3.289063   2.953871 C.3        1 UNL1     0.1322
     17 O         -6.86402   -2.706592   2.598725 O.3        1 UNL1     -0.4828
     18 C         -9.257813   -3.028757   1.944024 C.ar        1 UNL1     -0.0067
     19 C         -9.326615   -1.780134   1.292549 C.ar        1 UNL1     -0.0516
     20 C         -10.365308   -1.492357   0.399092 C.ar        1 UNL1     -0.0198
     21 C         -11.343172   -2.439944   0.154778 C.ar        1 UNL1     0.1169
     22 C         -11.284126   -3.690738   0.7555 C.ar        1 UNL1     -0.0198
     23 C         -10.235356   -3.985433   1.634871 C.ar        1 UNL1     -0.0516
     24 O         -12.360059   -2.110218   -0.692347 O.3        1 UNL1     -0.5068
     25 O         -7.762293   -6.634467   1.883869 O.2        1 UNL1     -0.2917
     26 O         -5.819473   -6.663356   0.014874 O.3        1 UNL1     -0.5058
     27 O         -1.60737   -1.077024   1.675205 O.3        1 UNL1     -0.3648
     28 O         1.382399   -1.485771   -0.30378 O.3        1 UNL1     -0.3841
     29 O         -1.625073   -0.323967   -1.870996 O.3        1 UNL1     -0.3863
     30 O         -0.030689   -3.633038   -1.960995 O.3        1 UNL1     -0.3829
     31 H         0.123875   -2.067365   1.676718 H        1 UNL1     0.0937
     32 H         0.0   0.0   0.0 H        1 UNL1     0.0671
     33 H         0.149022   -1.162365   -2.354125 H        1 UNL1     0.0649
     34 H         -1.768964   -2.806144   -2.672739 H        1 UNL1     0.0683
     35 H         -2.125721   -4.293429   -0.755721 H        1 UNL1     0.1085
     36 H         -3.957178   -5.217225   -0.958714 H        1 UNL1     0.0691
     37 H         -4.885958   -1.688054   1.346176 H        1 UNL1     0.0691
     38 H         -7.272737   -4.878795   4.155995 H        1 UNL1     0.0385
     39 H         -8.926798   -5.218747   3.610968 H        1 UNL1     0.0385
     40 H         -8.438521   -2.755819   3.865757 H        1 UNL1     0.0789
     41 H         -8.576311   -1.016165   1.474333 H        1 UNL1     0.0623
     42 H         -10.41394   -0.521555   -0.087929 H        1 UNL1     0.0654
     43 H         -12.036352   -4.445547   0.559721 H        1 UNL1     0.0654
     44 H         -10.214721   -4.976312   2.078242 H        1 UNL1     0.0623
     45 H         -12.876443   -1.394453   -0.287692 H        1 UNL1     0.2921
     46 H         -5.79044   -7.239188   0.795249 H        1 UNL1     0.2922
     47 H         -1.19665   -0.260006   1.990879 H        1 UNL1     0.2126
     48 H         1.818778   -1.176627   0.513371 H        1 UNL1     0.2101
     49 H         -1.202384   0.537295   -2.017129 H        1 UNL1     0.2100
     50 H         0.381161   -3.419637   -2.82387 H        1 UNL1     0.2102
@<TRIPOS>BOND
     1     1     2    1
     2     1     6    1
     3     2     3    1
     4     3     4    1
     5     3    29    1
     6     3    33    1
     7     4     5    1
     8     5     6    1
     9     5     7    1
    10     5    35    1
    11     7     8    1
    12     8     9   ar
    13     8    13   ar
    14     9    10   ar
    15     9    36    1
    16    10    11   ar
    17    10    26    1
    18    11    12   ar
    19    11    14    1
    20    12    13   ar
    21    12    17    1
    22    13    37    1
    23    14    15    1
    24    14    25    2
    25    15    16    1
    26    15    38    1
    27    15    39    1
    28    16    17    1
    29    16    18    1
    30    16    40    1
    31    18    19   ar
    32    18    23   ar
    33    19    20   ar
    34    19    41    1
    35    20    21   ar
    36    20    42    1
    37    21    22   ar
    38    21    24    1
    39    22    23   ar
    40    22    43    1
    41    23    44    1
    42    24    45    1
    43    26    46    1
    44    27    47    1
    45    28    48    1
    46    29    49    1
    47    30    50    1
    48     1    31    1
    49     1    27    1
    50     2    32    1
    51     2    28    1
    52     4    34    1
    53     4    30    1
