@<TRIPOS>MOLECULE
*****
 50 53 0 0 0
SMALL
GASTEIGER

@<TRIPOS>ATOM
     1 C         -0.336629   -1.330847   1.69892 C.3        1 UNL1     0.1889
     2 C         -0.465009   -0.97464   0.193405 C.3        1 UNL1     0.1342
     3 C         -1.905375   -0.957509   -0.340932 C.3        1 UNL1     0.1174
     4 C         -2.794813   -2.015883   0.31623 C.3        1 UNL1     0.1456
     5 C         -2.644503   -2.044603   1.848205 C.3        1 UNL1     0.2326
     6 O         -1.280432   -2.266722   2.19869 O.3        1 UNL1     -0.3076
     7 O         -3.217137   -0.897428   2.501963 O.3        1 UNL1     -0.4605
     8 C         -3.728644   -1.114181   3.768812 C.ar        1 UNL1     0.1310
     9 C         -4.548059   -2.185861   4.139435 C.ar        1 UNL1     0.0226
     10 C         -5.002672   -2.327791   5.455902 C.ar        1 UNL1     0.1343
     11 C         -4.629014   -1.413585   6.44 C.ar        1 UNL1     0.1007
     12 C         -3.844734   -0.316724   6.07314 C.ar        1 UNL1     0.1389
     13 C         -3.389927   -0.172796   4.748804 C.ar        1 UNL1     0.0229
     14 C         -5.011443   -1.561362   7.863398 C.2        1 UNL1     0.1740
     15 C         -4.341058   -0.616749   8.817253 C.3        1 UNL1     0.0520
     16 C         -4.267671   0.756388   8.163751 C.3        1 UNL1     0.1322
     17 O         -3.508031   0.700136   6.936212 O.3        1 UNL1     -0.4828
     18 C         -5.625051   1.452475   8.038429 C.ar        1 UNL1     -0.0067
     19 C         -6.000331   2.021215   6.80396 C.ar        1 UNL1     -0.0516
     20 C         -7.213739   2.70612   6.667906 C.ar        1 UNL1     -0.0198
     21 C         -8.055338   2.835238   7.758258 C.ar        1 UNL1     0.1169
     22 C         -7.728836   2.257283   8.978177 C.ar        1 UNL1     -0.0198
     23 C         -6.523999   1.556466   9.109631 C.ar        1 UNL1     -0.0516
     24 O         -9.211075   3.541583   7.597786 O.3        1 UNL1     -0.5068
     25 O         -5.762849   -2.442009   8.273685 O.2        1 UNL1     -0.2917
     26 O         -5.799958   -3.394711   5.751878 O.3        1 UNL1     -0.5058
     27 O         -0.229193   -0.194541   2.541566 O.3        1 UNL1     -0.3648
     28 O         0.26372   -1.953373   -0.570624 O.3        1 UNL1     -0.3841
     29 O         -2.459631   0.357331   -0.262634 O.3        1 UNL1     -0.3863
     30 O         -2.450056   -3.316506   -0.208377 O.3        1 UNL1     -0.3829
     31 H         0.62267   -1.846318   1.817723 H        1 UNL1     0.0937
     32 H         0.0   0.0   0.0 H        1 UNL1     0.0671
     33 H         -1.868088   -1.19504   -1.41327 H        1 UNL1     0.0649
     34 H         -3.844284   -1.834447   0.059145 H        1 UNL1     0.0683
     35 H         -3.201678   -2.939694   2.151927 H        1 UNL1     0.1085
     36 H         -4.827776   -2.960416   3.433784 H        1 UNL1     0.0691
     37 H         -2.781456   0.690643   4.488555 H        1 UNL1     0.0691
     38 H         -3.339899   -1.009831   9.023877 H        1 UNL1     0.0385
     39 H         -4.902083   -0.598208   9.757831 H        1 UNL1     0.0385
     40 H         -3.671764   1.398717   8.826192 H        1 UNL1     0.0789
     41 H         -5.352999   1.941522   5.935478 H        1 UNL1     0.0623
     42 H         -7.486395   3.15053   5.713878 H        1 UNL1     0.0654
     43 H         -8.38754   2.33943   9.834489 H        1 UNL1     0.0654
     44 H         -6.305805   1.108659   10.074361 H        1 UNL1     0.0623
     45 H         -8.982264   4.451142   7.346658 H        1 UNL1     0.2921
     46 H         -5.398762   -3.908962   6.470209 H        1 UNL1     0.2922
     47 H         0.513685   0.359325   2.263673 H        1 UNL1     0.2126
     48 H         1.199352   -1.878705   -0.300903 H        1 UNL1     0.2101
     49 H         -2.018932   0.939825   -0.901601 H        1 UNL1     0.2100
     50 H         -2.68258   -3.329112   -1.159948 H        1 UNL1     0.2102
@<TRIPOS>BOND
     1     1     2    1
     2     1     6    1
     3     2     3    1
     4     3     4    1
     5     3    29    1
     6     3    33    1
     7     4     5    1
     8     5     6    1
     9     5     7    1
    10     5    35    1
    11     7     8    1
    12     8     9   ar
    13     8    13   ar
    14     9    10   ar
    15     9    36    1
    16    10    11   ar
    17    10    26    1
    18    11    12   ar
    19    11    14    1
    20    12    13   ar
    21    12    17    1
    22    13    37    1
    23    14    15    1
    24    14    25    2
    25    15    16    1
    26    15    38    1
    27    15    39    1
    28    16    17    1
    29    16    18    1
    30    16    40    1
    31    18    19   ar
    32    18    23   ar
    33    19    20   ar
    34    19    41    1
    35    20    21   ar
    36    20    42    1
    37    21    22   ar
    38    21    24    1
    39    22    23   ar
    40    22    43    1
    41    23    44    1
    42    24    45    1
    43    26    46    1
    44    27    47    1
    45    28    48    1
    46    29    49    1
    47    30    50    1
    48     1    31    1
    49     1    27    1
    50     2    32    1
    51     2    28    1
    52     4    34    1
    53     4    30    1
