@<TRIPOS>MOLECULE
*****
 50 53 0 0 0
SMALL
GASTEIGER

@<TRIPOS>ATOM
     1 C         -0.31951   -1.32213   1.709003 C.3        1 UNL1     0.1889
     2 C         -0.455753   -0.977365   0.201516 C.3        1 UNL1     0.1342
     3 C         -1.897881   -0.976608   -0.328325 C.3        1 UNL1     0.1174
     4 C         -2.77585   -2.038282   0.33886 C.3        1 UNL1     0.1456
     5 C         -2.620495   -2.055206   1.870507 C.3        1 UNL1     0.2326
     6 O         -1.253419   -2.262868   2.218139 O.3        1 UNL1     -0.3076
     7 O         -3.201213   -0.908693   2.518269 O.3        1 UNL1     -0.4605
     8 C         -3.706811   -1.121295   3.78819 C.ar        1 UNL1     0.1310
     9 C         -4.51554   -2.197614   4.16871 C.ar        1 UNL1     0.0226
     10 C         -4.964753   -2.334555   5.487557 C.ar        1 UNL1     0.1343
     11 C         -4.596124   -1.410382   6.464214 C.ar        1 UNL1     0.1007
     12 C         -3.822739   -0.309169   6.087398 C.ar        1 UNL1     0.1389
     13 C         -3.373374   -0.170282   4.760668 C.ar        1 UNL1     0.0229
     14 C         -4.972769   -1.551803   7.889798 C.2        1 UNL1     0.1740
     15 C         -4.30779   -0.594811   8.835059 C.3        1 UNL1     0.0520
     16 C         -4.248611   0.774424   8.171998 C.3        1 UNL1     0.1322
     17 O         -3.492351   0.716498   6.942451 O.3        1 UNL1     -0.4828
     18 C         -5.612487   1.457623   8.046276 C.ar        1 UNL1     -0.0067
     19 C         -5.997818   2.012113   6.808426 C.ar        1 UNL1     -0.0516
     20 C         -7.217676   2.685279   6.671462 C.ar        1 UNL1     -0.0198
     21 C         -8.05582   2.816803   7.764185 C.ar        1 UNL1     0.1169
     22 C         -7.719244   2.252547   8.987774 C.ar        1 UNL1     -0.0198
     23 C         -6.507838   1.563356   9.120315 C.ar        1 UNL1     -0.0516
     24 O         -9.218296   3.511687   7.60237 O.3        1 UNL1     -0.5068
     25 O         -5.715059   -2.436229   8.308465 O.2        1 UNL1     -0.2917
     26 O         -5.75163   -3.406428   5.79333 O.3        1 UNL1     -0.5058
     27 O         -0.2195   -0.179188   2.543549 O.3        1 UNL1     -0.3648
     28 O         0.279216   -1.954821   -0.558159 O.3        1 UNL1     -0.3841
     29 O         -2.463509   0.333789   -0.257206 O.3        1 UNL1     -0.3863
     30 O         -2.421236   -3.339363   -0.177983 O.3        1 UNL1     -0.3829
     31 H         0.644683   -1.828284   1.828247 H        1 UNL1     0.0937
     32 H         0.0   0.0   0.0 H        1 UNL1     0.0671
     33 H         -1.861852   -1.221121   -1.399135 H        1 UNL1     0.0649
     34 H         -3.827687   -1.867884   0.083898 H        1 UNL1     0.0683
     35 H         -3.168769   -2.953087   2.18209 H        1 UNL1     0.1085
     36 H         -4.790597   -2.979412   3.469242 H        1 UNL1     0.0691
     37 H         -2.77339   0.6967   4.492608 H        1 UNL1     0.0691
     38 H         -3.302547   -0.977614   9.041156 H        1 UNL1     0.0385
     39 H         -4.866009   -0.5748   9.777275 H        1 UNL1     0.0385
     40 H         -3.656342   1.426502   8.828147 H        1 UNL1     0.0789
     41 H         -5.353438   1.930303   5.937947 H        1 UNL1     0.0623
     42 H         -7.498143   3.118826   5.714703 H        1 UNL1     0.0654
     43 H         -8.375068   2.336605   9.84611 H        1 UNL1     0.0654
     44 H         -6.281757   1.126037   10.088036 H        1 UNL1     0.0623
     45 H         -8.99859   4.419387   7.336801 H        1 UNL1     0.2921
     46 H         -5.342955   -3.912974   6.512919 H        1 UNL1     0.2922
     47 H         0.519277   0.377913   2.261228 H        1 UNL1     0.2126
     48 H         1.212353   -1.881687   -0.279519 H        1 UNL1     0.2101
     49 H         -2.029869   0.915819   -0.901405 H        1 UNL1     0.2100
     50 H         -2.656618   -3.360523   -1.128699 H        1 UNL1     0.2102
@<TRIPOS>BOND
     1     1     2    1
     2     1     6    1
     3     2     3    1
     4     3     4    1
     5     3    29    1
     6     3    33    1
     7     4     5    1
     8     5     6    1
     9     5     7    1
    10     5    35    1
    11     7     8    1
    12     8     9   ar
    13     8    13   ar
    14     9    10   ar
    15     9    36    1
    16    10    11   ar
    17    10    26    1
    18    11    12   ar
    19    11    14    1
    20    12    13   ar
    21    12    17    1
    22    13    37    1
    23    14    15    1
    24    14    25    2
    25    15    16    1
    26    15    38    1
    27    15    39    1
    28    16    17    1
    29    16    18    1
    30    16    40    1
    31    18    19   ar
    32    18    23   ar
    33    19    20   ar
    34    19    41    1
    35    20    21   ar
    36    20    42    1
    37    21    22   ar
    38    21    24    1
    39    22    23   ar
    40    22    43    1
    41    23    44    1
    42    24    45    1
    43    26    46    1
    44    27    47    1
    45    28    48    1
    46    29    49    1
    47    30    50    1
    48     1    31    1
    49     1    27    1
    50     2    32    1
    51     2    28    1
    52     4    34    1
    53     4    30    1
