@<TRIPOS>MOLECULE
*****
 50 53 0 0 0
SMALL
GASTEIGER

@<TRIPOS>ATOM
     1 C         -0.370614   -1.397887   1.636875 C.3        1 UNL1     0.1889
     2 C         -0.487768   -0.971335   0.148833 C.3        1 UNL1     0.1342
     3 C         -1.9263   -0.896802   -0.385524 C.3        1 UNL1     0.1174
     4 C         -2.84123   -1.962831   0.222425 C.3        1 UNL1     0.1456
     5 C         -2.694642   -2.064016   1.751685 C.3        1 UNL1     0.2326
     6 O         -1.336756   -2.333225   2.093065 O.3        1 UNL1     -0.3076
     7 O         -3.241924   -0.934509   2.455971 O.3        1 UNL1     -0.4605
     8 C         -3.771028   -1.198242   3.706579 C.ar        1 UNL1     0.1310
     9 C         -4.614444   -2.269511   4.020159 C.ar        1 UNL1     0.0226
     10 C         -5.08579   -2.461847   5.324284 C.ar        1 UNL1     0.1343
     11 C         -4.705571   -1.600336   6.352425 C.ar        1 UNL1     0.1007
     12 C         -3.896847   -0.503408   6.043397 C.ar        1 UNL1     0.1389
     13 C         -3.425184   -0.308725   4.731504 C.ar        1 UNL1     0.0229
     14 C         -5.106011   -1.804729   7.763816 C.2        1 UNL1     0.1740
     15 C         -4.428235   -0.917218   8.766061 C.3        1 UNL1     0.0520
     16 C         -4.321943   0.482315   8.176175 C.3        1 UNL1     0.1322
     17 O         -3.550335   0.466805   6.954926 O.3        1 UNL1     -0.4828
     18 C         -5.66453   1.209443   8.06908 C.ar        1 UNL1     -0.0067
     19 C         -5.686983   2.572978   7.710634 C.ar        1 UNL1     -0.0516
     20 C         -6.893835   3.279919   7.649766 C.ar        1 UNL1     -0.0198
     21 C         -8.081584   2.638029   7.951522 C.ar        1 UNL1     0.1169
     22 C         -8.095198   1.287528   8.275253 C.ar        1 UNL1     -0.0198
     23 C         -6.890391   0.575736   8.31823 C.ar        1 UNL1     -0.0516
     24 O         -9.233073   3.368354   7.918404 O.3        1 UNL1     -0.5068
     25 O         -5.878259   -2.688298   8.126343 O.2        1 UNL1     -0.2917
     26 O         -5.90619   -3.525422   5.563732 O.3        1 UNL1     -0.5058
     27 O         -0.238631   -0.303492   2.529996 O.3        1 UNL1     -0.3648
     28 O         0.219672   -1.931263   -0.657872 O.3        1 UNL1     -0.3841
     29 O         -2.450202   0.425655   -0.248538 O.3        1 UNL1     -0.3863
     30 O         -2.525562   -3.246131   -0.359971 O.3        1 UNL1     -0.3829
     31 H         0.576292   -1.940261   1.733206 H        1 UNL1     0.0937
     32 H         0.0   0.0   0.0 H        1 UNL1     0.0671
     33 H         -1.892394   -1.086579   -1.467446 H        1 UNL1     0.0649
     34 H         -3.885723   -1.745746   -0.027192 H        1 UNL1     0.0683
     35 H         -3.272933   -2.95874   2.014225 H        1 UNL1     0.1085
     36 H         -4.901108   -3.005909   3.27742 H        1 UNL1     0.0691
     37 H         -2.797776   0.553652   4.51666 H        1 UNL1     0.0691
     38 H         -3.436947   -1.338489   8.964568 H        1 UNL1     0.0385
     39 H         -4.998899   -0.930272   9.700914 H        1 UNL1     0.0385
     40 H         -3.721192   1.082486   8.872892 H        1 UNL1     0.0789
     41 H         -4.767281   3.101862   7.478084 H        1 UNL1     0.0623
     42 H         -6.896829   4.334051   7.383667 H        1 UNL1     0.0654
     43 H         -9.021216   0.771317   8.498695 H        1 UNL1     0.0654
     44 H         -6.9393   -0.480582   8.564493 H        1 UNL1     0.0623
     45 H         -9.189865   4.040954   8.617303 H        1 UNL1     0.2921
     46 H         -5.53366   -4.067151   6.277289 H        1 UNL1     0.2922
     47 H         0.506479   0.254883   2.267529 H        1 UNL1     0.2126
     48 H         1.171833   -1.779273   -0.50288 H        1 UNL1     0.2101
     49 H         -2.134596   0.982828   -0.977746 H        1 UNL1     0.2100
     50 H         -2.782671   -3.219843   -1.304913 H        1 UNL1     0.2102
@<TRIPOS>BOND
     1     1     2    1
     2     1     6    1
     3     2     3    1
     4     3     4    1
     5     3    29    1
     6     3    33    1
     7     4     5    1
     8     5     6    1
     9     5     7    1
    10     5    35    1
    11     7     8    1
    12     8     9   ar
    13     8    13   ar
    14     9    10   ar
    15     9    36    1
    16    10    11   ar
    17    10    26    1
    18    11    12   ar
    19    11    14    1
    20    12    13   ar
    21    12    17    1
    22    13    37    1
    23    14    15    1
    24    14    25    2
    25    15    16    1
    26    15    38    1
    27    15    39    1
    28    16    17    1
    29    16    18    1
    30    16    40    1
    31    18    19   ar
    32    18    23   ar
    33    19    20   ar
    34    19    41    1
    35    20    21   ar
    36    20    42    1
    37    21    22   ar
    38    21    24    1
    39    22    23   ar
    40    22    43    1
    41    23    44    1
    42    24    45    1
    43    26    46    1
    44    27    47    1
    45    28    48    1
    46    29    49    1
    47    30    50    1
    48     1    31    1
    49     1    27    1
    50     2    32    1
    51     2    28    1
    52     4    34    1
    53     4    30    1
