@<TRIPOS>MOLECULE
*****
 50 53 0 0 0
SMALL
GASTEIGER

@<TRIPOS>ATOM
     1 C         -0.282566   -1.985067   -0.866296 C.3        1 UNL1     0.1889
     2 C         -0.644121   -0.48007   -0.74713 C.3        1 UNL1     0.1342
     3 C         -2.113404   -0.199357   -0.396599 C.3        1 UNL1     0.1174
     4 C         -3.07629   -1.213391   -1.019259 C.3        1 UNL1     0.1456
     5 C         -2.604601   -2.666991   -0.832389 C.3        1 UNL1     0.2326
     6 O         -1.300013   -2.829423   -1.384235 O.3        1 UNL1     -0.3076
     7 O         -2.706574   -3.132632   0.525588 O.3        1 UNL1     -0.4605
     8 C         -2.237596   -4.411868   0.764637 C.ar        1 UNL1     0.1310
     9 C         -1.643858   -5.248258   -0.186798 C.ar        1 UNL1     0.0226
     10 C         -1.183997   -6.524763   0.158115 C.ar        1 UNL1     0.1343
     11 C         -1.285271   -6.987083   1.469543 C.ar        1 UNL1     0.1007
     12 C         -1.913394   -6.177108   2.419377 C.ar        1 UNL1     0.1389
     13 C         -2.378084   -4.894676   2.071725 C.ar        1 UNL1     0.0229
     14 C         -0.740654   -8.293192   1.907296 C.2        1 UNL1     0.1740
     15 C         -0.737522   -8.531718   3.388729 C.3        1 UNL1     0.0520
     16 C         -2.038424   -7.991497   3.966458 C.3        1 UNL1     0.1322
     17 O         -2.163115   -6.574832   3.712328 O.3        1 UNL1     -0.4828
     18 C         -3.27087   -8.815239   3.585342 C.ar        1 UNL1     -0.0067
     19 C         -3.50654   -10.047347   4.229223 C.ar        1 UNL1     -0.0516
     20 C         -4.597962   -10.847721   3.871224 C.ar        1 UNL1     -0.0198
     21 C         -5.454888   -10.431539   2.868081 C.ar        1 UNL1     0.1169
     22 C         -5.268187   -9.207673   2.238689 C.ar        1 UNL1     -0.0198
     23 C         -4.187412   -8.398565   2.609264 C.ar        1 UNL1     -0.0516
     24 O         -6.485141   -11.255011   2.520412 O.3        1 UNL1     -0.5068
     25 O         -0.244284   -9.111116   1.137164 O.2        1 UNL1     -0.2917
     26 O         -0.615541   -7.291273   -0.817029 O.3        1 UNL1     -0.5058
     27 O         0.294506   -2.522956   0.312877 O.3        1 UNL1     -0.3648
     28 O         -0.376469   0.154804   -2.011252 O.3        1 UNL1     -0.3841
     29 O         -2.28203   -0.071617   1.016688 O.3        1 UNL1     -0.3863
     30 O         -3.199582   -0.943554   -2.432651 O.3        1 UNL1     -0.3829
     31 H         0.514992   -2.056952   -1.613833 H        1 UNL1     0.0937
     32 H         0.0   0.0   0.0 H        1 UNL1     0.0671
     33 H         -2.375242   0.783916   -0.811731 H        1 UNL1     0.0649
     34 H         -4.074534   -1.098137   -0.582651 H        1 UNL1     0.0683
     35 H         -3.290859   -3.250396   -1.458942 H        1 UNL1     0.1085
     36 H         -1.485431   -4.92565   -1.210001 H        1 UNL1     0.0691
     37 H         -2.864482   -4.284076   2.829405 H        1 UNL1     0.0691
     38 H         0.128227   -8.007111   3.806812 H        1 UNL1     0.0385
     39 H         -0.61314   -9.603123   3.579515 H        1 UNL1     0.0385
     40 H         -1.963901   -8.068814   5.059613 H        1 UNL1     0.0789
     41 H         -2.843281   -10.4006   5.013411 H        1 UNL1     0.0623
     42 H         -4.762207   -11.801301   4.366927 H        1 UNL1     0.0654
     43 H         -5.94182   -8.865163   1.462277 H        1 UNL1     0.0654
     44 H         -4.077921   -7.443849   2.103918 H        1 UNL1     0.0623
     45 H         -7.279127   -10.973446   3.003137 H        1 UNL1     0.2921
     46 H         -0.273457   -8.110767   -0.426108 H        1 UNL1     0.2922
     47 H         1.185809   -2.16931   0.440836 H        1 UNL1     0.2126
     48 H         -0.696155   1.074482   -1.935587 H        1 UNL1     0.2101
     49 H         -3.097289   -0.519368   1.293574 H        1 UNL1     0.2100
     50 H         -3.198062   0.028386   -2.555302 H        1 UNL1     0.2102
@<TRIPOS>BOND
     1     1     2    1
     2     1     6    1
     3     2     3    1
     4     3     4    1
     5     3    29    1
     6     3    33    1
     7     4     5    1
     8     5     6    1
     9     5     7    1
    10     5    35    1
    11     7     8    1
    12     8     9   ar
    13     8    13   ar
    14     9    10   ar
    15     9    36    1
    16    10    11   ar
    17    10    26    1
    18    11    12   ar
    19    11    14    1
    20    12    13   ar
    21    12    17    1
    22    13    37    1
    23    14    15    1
    24    14    25    2
    25    15    16    1
    26    15    38    1
    27    15    39    1
    28    16    17    1
    29    16    18    1
    30    16    40    1
    31    18    19   ar
    32    18    23   ar
    33    19    20   ar
    34    19    41    1
    35    20    21   ar
    36    20    42    1
    37    21    22   ar
    38    21    24    1
    39    22    23   ar
    40    22    43    1
    41    23    44    1
    42    24    45    1
    43    26    46    1
    44    27    47    1
    45    28    48    1
    46    29    49    1
    47    30    50    1
    48     1    31    1
    49     1    27    1
    50     2    32    1
    51     2    28    1
    52     4    34    1
    53     4    30    1
