@<TRIPOS>MOLECULE
*****
 50 53 0 0 0
SMALL
GASTEIGER

@<TRIPOS>ATOM
     1 C         -0.448223   -1.428218   -1.590627 C.3        1 UNL1     0.1889
     2 C         -0.24101   -1.066012   -0.095364 C.3        1 UNL1     0.1342
     3 C         0.840278   -1.890189   0.620185 C.3        1 UNL1     0.1174
     4 C         0.909999   -3.336381   0.12341 C.3        1 UNL1     0.1456
     5 C         0.894538   -3.434075   -1.413009 C.3        1 UNL1     0.2326
     6 O         -0.271438   -2.795953   -1.928923 O.3        1 UNL1     -0.3076
     7 O         2.111044   -2.973565   -2.028934 O.3        1 UNL1     -0.4605
     8 C         2.140136   -1.638471   -2.389775 C.ar        1 UNL1     0.1310
     9 C         3.296071   -0.865221   -2.542088 C.ar        1 UNL1     0.0226
     10 C         3.222336   0.478346   -2.928474 C.ar        1 UNL1     0.1343
     11 C         1.990947   1.07528   -3.195288 C.ar        1 UNL1     0.1007
     12 C         0.82724   0.324887   -3.006923 C.ar        1 UNL1     0.1389
     13 C         0.9015   -1.025289   -2.615848 C.ar        1 UNL1     0.0229
     14 C         1.860088   2.466293   -3.687337 C.2        1 UNL1     0.1740
     15 C         0.485741   2.870459   -4.133845 C.3        1 UNL1     0.0520
     16 C         -0.528579   2.284213   -3.161515 C.3        1 UNL1     0.1322
     17 O         -0.440707   0.84244   -3.136213 O.3        1 UNL1     -0.4828
     18 C         -0.512077   2.945078   -1.781041 C.ar        1 UNL1     -0.0067
     19 C         0.584673   3.750791   -1.412016 C.ar        1 UNL1     -0.0516
     20 C         0.653719   4.331257   -0.139909 C.ar        1 UNL1     -0.0198
     21 C         -0.361751   4.108108   0.772698 C.ar        1 UNL1     0.1169
     22 C         -1.470754   3.346808   0.427194 C.ar        1 UNL1     -0.0198
     23 C         -1.548878   2.781379   -0.851181 C.ar        1 UNL1     -0.0516
     24 O         -0.241807   4.658712   2.014813 O.3        1 UNL1     -0.5068
     25 O         2.811906   3.233045   -3.808244 O.2        1 UNL1     -0.2917
     26 O         4.386815   1.177488   -3.057992 O.3        1 UNL1     -0.5058
     27 O         0.251085   -0.573733   -2.481475 O.3        1 UNL1     -0.3648
     28 O         -1.480276   -1.286683   0.60337 O.3        1 UNL1     -0.3841
     29 O         2.103802   -1.224837   0.565894 O.3        1 UNL1     -0.3863
     30 O         -0.217412   -4.071865   0.646571 O.3        1 UNL1     -0.3829
     31 H         -1.50478   -1.243775   -1.813667 H        1 UNL1     0.0937
     32 H         0.0   0.0   0.0 H        1 UNL1     0.0671
     33 H         0.578544   -1.932775   1.686676 H        1 UNL1     0.0649
     34 H         1.814689   -3.820545   0.507496 H        1 UNL1     0.0683
     35 H         0.783413   -4.507967   -1.608673 H        1 UNL1     0.1085
     36 H         4.285959   -1.286106   -2.403895 H        1 UNL1     0.0691
     37 H         -0.019195   -1.587413   -2.475027 H        1 UNL1     0.0691
     38 H         0.33687   2.476736   -5.144957 H        1 UNL1     0.0385
     39 H         0.430523   3.963402   -4.180802 H        1 UNL1     0.0385
     40 H         -1.526592   2.4913   -3.570912 H        1 UNL1     0.0789
     41 H         1.398925   3.933669   -2.107142 H        1 UNL1     0.0623
     42 H         1.510375   4.94082   0.136829 H        1 UNL1     0.0654
     43 H         -2.278784   3.178078   1.128997 H        1 UNL1     0.0654
     44 H         -2.434719   2.201071   -1.090709 H        1 UNL1     0.0623
     45 H         -0.078556   5.610493   1.913922 H        1 UNL1     0.2921
     46 H         4.198554   2.128705   -3.023989 H        1 UNL1     0.2922
     47 H         -0.354751   -0.21194   -3.143236 H        1 UNL1     0.2126
     48 H         -2.066638   -1.767386   -0.012127 H        1 UNL1     0.2101
     49 H         2.060988   -0.39397   1.065514 H        1 UNL1     0.2100
     50 H         -0.238821   -4.945712   0.204252 H        1 UNL1     0.2102
@<TRIPOS>BOND
     1     1     2    1
     2     1     6    1
     3     2     3    1
     4     3     4    1
     5     3    29    1
     6     3    33    1
     7     4     5    1
     8     5     6    1
     9     5     7    1
    10     5    35    1
    11     7     8    1
    12     8     9   ar
    13     8    13   ar
    14     9    10   ar
    15     9    36    1
    16    10    11   ar
    17    10    26    1
    18    11    12   ar
    19    11    14    1
    20    12    13   ar
    21    12    17    1
    22    13    37    1
    23    14    15    1
    24    14    25    2
    25    15    16    1
    26    15    38    1
    27    15    39    1
    28    16    17    1
    29    16    18    1
    30    16    40    1
    31    18    19   ar
    32    18    23   ar
    33    19    20   ar
    34    19    41    1
    35    20    21   ar
    36    20    42    1
    37    21    22   ar
    38    21    24    1
    39    22    23   ar
    40    22    43    1
    41    23    44    1
    42    24    45    1
    43    26    46    1
    44    27    47    1
    45    28    48    1
    46    29    49    1
    47    30    50    1
    48     1    31    1
    49     1    27    1
    50     2    32    1
    51     2    28    1
    52     4    34    1
    53     4    30    1
