@<TRIPOS>MOLECULE
*****
 50 53 0 0 0
SMALL
GASTEIGER

@<TRIPOS>ATOM
     1 C         -0.360149   -1.362865   1.668441 C.3        1 UNL1     0.1889
     2 C         -0.444215   -0.989628   0.163926 C.3        1 UNL1     0.1342
     3 C         -1.864348   -1.004752   -0.42213 C.3        1 UNL1     0.1174
     4 C         -2.746887   -2.09613   0.188718 C.3        1 UNL1     0.1456
     5 C         -2.651028   -2.141796   1.724651 C.3        1 UNL1     0.2326
     6 O         -1.294764   -2.331129   2.121602 O.3        1 UNL1     -0.3076
     7 O         -3.278673   -1.019909   2.371762 O.3        1 UNL1     -0.4605
     8 C         -3.829147   -1.268067   3.61632 C.ar        1 UNL1     0.1310
     9 C         -4.631059   -2.366874   3.943216 C.ar        1 UNL1     0.0226
     10 C         -5.128576   -2.539361   5.240378 C.ar        1 UNL1     0.1343
     11 C         -4.816275   -1.628863   6.248991 C.ar        1 UNL1     0.1007
     12 C         -4.050301   -0.505905   5.924901 C.ar        1 UNL1     0.1389
     13 C         -3.552363   -0.331307   4.619909 C.ar        1 UNL1     0.0229
     14 C         -5.245365   -1.806683   7.655553 C.2        1 UNL1     0.1740
     15 C         -4.636408   -0.857217   8.645115 C.3        1 UNL1     0.0520
     16 C         -4.578009   0.526286   8.012292 C.3        1 UNL1     0.1322
     17 O         -3.773436   0.507849   6.812546 O.3        1 UNL1     -0.4828
     18 C         -5.948946   1.186447   7.84663 C.ar        1 UNL1     -0.0067
     19 C         -6.295712   1.760773   6.606422 C.ar        1 UNL1     -0.0516
     20 C         -7.522129   2.413847   6.435082 C.ar        1 UNL1     -0.0198
     21 C         -8.405323   2.505553   7.495924 C.ar        1 UNL1     0.1169
     22 C         -8.106509   1.920869   8.719727 C.ar        1 UNL1     -0.0198
     23 C         -6.888046   1.251715   8.885969 C.ar        1 UNL1     -0.0516
     24 O         -9.573856   3.181959   7.302518 O.3        1 UNL1     -0.5068
     25 O         -5.98611   -2.713223   8.026993 O.2        1 UNL1     -0.2917
     26 O         -5.905831   -3.631774   5.493547 O.3        1 UNL1     -0.5058
     27 O         -0.31492   -0.235743   2.52887 O.3        1 UNL1     -0.3648
     28 O         0.338616   -1.937342   -0.585554 O.3        1 UNL1     -0.3841
     29 O         -2.457627   0.293148   -0.347245 O.3        1 UNL1     -0.3863
     30 O         -2.347235   -3.379435   -0.339576 O.3        1 UNL1     -0.3829
     31 H         0.608301   -1.853351   1.81543 H        1 UNL1     0.0937
     32 H         0.0   0.0   0.0 H        1 UNL1     0.0671
     33 H         -1.781888   -1.226382   -1.49535 H        1 UNL1     0.0649
     34 H         -3.791098   -1.940097   -0.103991 H        1 UNL1     0.0683
     35 H         -3.193507   -3.055965   1.996479 H        1 UNL1     0.1085
     36 H         -4.863438   -3.139038   3.218038 H        1 UNL1     0.0691
     37 H         -2.95932   0.552038   4.392982 H        1 UNL1     0.0691
     38 H         -3.632723   -1.225429   8.882944 H        1 UNL1     0.0385
     39 H         -5.231198   -0.867061   9.564848 H        1 UNL1     0.0385
     40 H         -4.024515   1.175576   8.704092 H        1 UNL1     0.0789
     41 H         -5.615872   1.710237   5.760896 H        1 UNL1     0.0623
     42 H         -7.772902   2.863048   5.477302 H        1 UNL1     0.0654
     43 H         -8.797345   1.973705   9.552712 H        1 UNL1     0.0654
     44 H         -6.691966   0.797484   9.852444 H        1 UNL1     0.0623
     45 H         -9.361612   4.099243   7.065328 H        1 UNL1     0.2921
     46 H         -5.515755   -4.145386   6.21843 H        1 UNL1     0.2922
     47 H         0.423352   0.340718   2.286986 H        1 UNL1     0.2126
     48 H         1.258593   -1.852634   -0.269012 H        1 UNL1     0.2101
     49 H         -2.010588   0.896326   -0.962164 H        1 UNL1     0.2100
     50 H         -2.544941   -3.385328   -1.29905 H        1 UNL1     0.2102
@<TRIPOS>BOND
     1     1     2    1
     2     1     6    1
     3     2     3    1
     4     3     4    1
     5     3    29    1
     6     3    33    1
     7     4     5    1
     8     5     6    1
     9     5     7    1
    10     5    35    1
    11     7     8    1
    12     8     9   ar
    13     8    13   ar
    14     9    10   ar
    15     9    36    1
    16    10    11   ar
    17    10    26    1
    18    11    12   ar
    19    11    14    1
    20    12    13   ar
    21    12    17    1
    22    13    37    1
    23    14    15    1
    24    14    25    2
    25    15    16    1
    26    15    38    1
    27    15    39    1
    28    16    17    1
    29    16    18    1
    30    16    40    1
    31    18    19   ar
    32    18    23   ar
    33    19    20   ar
    34    19    41    1
    35    20    21   ar
    36    20    42    1
    37    21    22   ar
    38    21    24    1
    39    22    23   ar
    40    22    43    1
    41    23    44    1
    42    24    45    1
    43    26    46    1
    44    27    47    1
    45    28    48    1
    46    29    49    1
    47    30    50    1
    48     1    31    1
    49     1    27    1
    50     2    32    1
    51     2    28    1
    52     4    34    1
    53     4    30    1
