@<TRIPOS>MOLECULE
*****
 50 53 0 0 0
SMALL
GASTEIGER

@<TRIPOS>ATOM
     1 C         -0.330145   -1.327218   1.703027 C.3        1 UNL1     0.1889
     2 C         -0.461579   -0.975611   0.196694 C.3        1 UNL1     0.1342
     3 C         -1.902664   -0.964664   -0.335866 C.3        1 UNL1     0.1174
     4 C         -2.787813   -2.024107   0.325352 C.3        1 UNL1     0.1456
     5 C         -2.635486   -2.048084   1.857209 C.3        1 UNL1     0.2326
     6 O         -1.270257   -2.264777   2.206583 O.3        1 UNL1     -0.3076
     7 O         -3.211043   -0.900973   2.508509 O.3        1 UNL1     -0.4605
     8 C         -3.719822   -1.115771   3.776789 C.ar        1 UNL1     0.1310
     9 C         -4.534964   -2.189171   4.151831 C.ar        1 UNL1     0.0226
     10 C         -4.98703   -2.328804   5.469421 C.ar        1 UNL1     0.1343
     11 C         -4.614984   -1.41044   6.450252 C.ar        1 UNL1     0.1007
     12 C         -3.835058   -0.31197   6.078955 C.ar        1 UNL1     0.1389
     13 C         -3.382816   -0.170361   4.753491 C.ar        1 UNL1     0.0229
     14 C         -4.99468   -1.555361   7.874676 C.2        1 UNL1     0.1740
     15 C         -4.326061   -0.60566   8.824711 C.3        1 UNL1     0.0520
     16 C         -4.25842   0.765802   8.167081 C.3        1 UNL1     0.1322
     17 O         -3.500508   0.708565   6.93852 O.3        1 UNL1     -0.4828
     18 C         -5.618382   1.45685   8.041857 C.ar        1 UNL1     -0.0067
     19 C         -5.998722   2.018222   6.805566 C.ar        1 UNL1     -0.0516
     20 C         -7.214703   2.698502   6.66929 C.ar        1 UNL1     -0.0198
     21 C         -8.05388   2.83031   7.761185 C.ar        1 UNL1     0.1169
     22 C         -7.722325   2.259492   8.983101 C.ar        1 UNL1     -0.0198
     23 C         -6.514874   1.56325   9.114879 C.ar        1 UNL1     -0.0516
     24 O         -9.212325   3.532095   7.600234 O.3        1 UNL1     -0.5068
     25 O         -5.742409   -2.437379   8.288717 O.2        1 UNL1     -0.2917
     26 O         -5.780177   -3.397586   5.769768 O.3        1 UNL1     -0.5058
     27 O         -0.225363   -0.188232   2.542383 O.3        1 UNL1     -0.3648
     28 O         0.269383   -1.954078   -0.565541 O.3        1 UNL1     -0.3841
     29 O         -2.461113   0.348572   -0.260511 O.3        1 UNL1     -0.3863
     30 O         -2.439468   -3.325049   -0.196084 O.3        1 UNL1     -0.3829
     31 H         0.630981   -1.839223   1.822044 H        1 UNL1     0.0937
     32 H         0.0   0.0   0.0 H        1 UNL1     0.0671
     33 H         -1.865948   -1.205048   -1.407587 H        1 UNL1     0.0649
     34 H         -3.838193   -1.846812   0.069093 H        1 UNL1     0.0683
     35 H         -3.189352   -2.944142   2.164117 H        1 UNL1     0.1085
     36 H         -4.813116   -2.966746   3.448888 H        1 UNL1     0.0691
     37 H         -2.777728   0.694398   4.489762 H        1 UNL1     0.0691
     38 H         -3.323233   -0.994691   9.030909 H        1 UNL1     0.0385
     39 H         -4.885677   -0.586291   9.76611 H        1 UNL1     0.0385
     40 H         -3.663693   1.412113   8.826704 H        1 UNL1     0.0789
     41 H         -5.353395   1.936312   5.935799 H        1 UNL1     0.0623
     42 H         -7.491286   3.137274   5.713783 H        1 UNL1     0.0654
     43 H         -8.379064   2.34376   9.840715 H        1 UNL1     0.0654
     44 H         -6.292715   1.120957   10.081247 H        1 UNL1     0.0623
     45 H         -8.987313   4.439428   7.337871 H        1 UNL1     0.2921
     46 H         -5.374884   -3.909709   6.487319 H        1 UNL1     0.2922
     47 H         0.517153   0.365785   2.263824 H        1 UNL1     0.2126
     48 H         1.202258   -1.887769   -0.284331 H        1 UNL1     0.2101
     49 H         -2.023004   0.930769   -0.901527 H        1 UNL1     0.2100
     50 H         -2.673144   -3.341056   -1.147321 H        1 UNL1     0.2102
@<TRIPOS>BOND
     1     1     2    1
     2     1     6    1
     3     2     3    1
     4     3     4    1
     5     3    29    1
     6     3    33    1
     7     4     5    1
     8     5     6    1
     9     5     7    1
    10     5    35    1
    11     7     8    1
    12     8     9   ar
    13     8    13   ar
    14     9    10   ar
    15     9    36    1
    16    10    11   ar
    17    10    26    1
    18    11    12   ar
    19    11    14    1
    20    12    13   ar
    21    12    17    1
    22    13    37    1
    23    14    15    1
    24    14    25    2
    25    15    16    1
    26    15    38    1
    27    15    39    1
    28    16    17    1
    29    16    18    1
    30    16    40    1
    31    18    19   ar
    32    18    23   ar
    33    19    20   ar
    34    19    41    1
    35    20    21   ar
    36    20    42    1
    37    21    22   ar
    38    21    24    1
    39    22    23   ar
    40    22    43    1
    41    23    44    1
    42    24    45    1
    43    26    46    1
    44    27    47    1
    45    28    48    1
    46    29    49    1
    47    30    50    1
    48     1    31    1
    49     1    27    1
    50     2    32    1
    51     2    28    1
    52     4    34    1
    53     4    30    1
