@<TRIPOS>MOLECULE
*****
 50 53 0 0 0
SMALL
GASTEIGER

@<TRIPOS>ATOM
     1 C         -0.013964   -1.982798   -0.916037 C.3        1 UNL1     0.1889
     2 C         -0.28276   -0.454414   -0.957662 C.3        1 UNL1     0.1342
     3 C         -1.732456   -0.067033   -1.287484 C.3        1 UNL1     0.1174
     4 C         -2.393427   -1.029522   -2.277357 C.3        1 UNL1     0.1456
     5 C         -2.156807   -2.506331   -1.912105 C.3        1 UNL1     0.2326
     6 O         -0.757704   -2.76975   -1.834704 O.3        1 UNL1     -0.3076
     7 O         -2.877979   -2.929778   -0.740814 O.3        1 UNL1     -0.4605
     8 C         -2.14486   -2.999738   0.430156 C.ar        1 UNL1     0.1310
     9 C         -0.914692   -2.3724   0.654738 C.ar        1 UNL1     0.0226
     10 C         -0.256234   -2.489856   1.884591 C.ar        1 UNL1     0.1343
     11 C         -0.824023   -3.218673   2.928757 C.ar        1 UNL1     0.1007
     12 C         -2.032281   -3.883444   2.702981 C.ar        1 UNL1     0.1389
     13 C         -2.692873   -3.76736   1.465413 C.ar        1 UNL1     0.0229
     14 C         -0.212714   -3.306509   4.275138 C.2        1 UNL1     0.1740
     15 C         -1.064677   -3.941047   5.334887 C.3        1 UNL1     0.0520
     16 C         -1.786898   -5.133286   4.72258 C.3        1 UNL1     0.1322
     17 O         -2.626283   -4.71523   3.623611 O.3        1 UNL1     -0.4828
     18 C         -0.866604   -6.314182   4.404352 C.ar        1 UNL1     -0.0067
     19 C         0.416508   -6.068837   3.873653 C.ar        1 UNL1     -0.0516
     20 C         1.264993   -7.127173   3.5273 C.ar        1 UNL1     -0.0198
     21 C         0.840185   -8.432428   3.699565 C.ar        1 UNL1     0.1169
     22 C         -0.404776   -8.705828   4.251075 C.ar        1 UNL1     -0.0198
     23 C         -1.246216   -7.647615   4.614696 C.ar        1 UNL1     -0.0516
     24 O         1.679009   -9.437113   3.315659 O.3        1 UNL1     -0.5068
     25 O         0.883825   -2.827717   4.552349 O.2        1 UNL1     -0.2917
     26 O         0.941229   -1.854343   2.03883 O.3        1 UNL1     -0.5058
     27 O         -0.053662   -2.52836   0.392998 O.3        1 UNL1     -0.3648
     28 O         0.557604   0.129075   -1.970595 O.3        1 UNL1     -0.3841
     29 O         -2.495302   0.107241   -0.09173 O.3        1 UNL1     -0.3863
     30 O         -1.863588   -0.787657   -3.598895 O.3        1 UNL1     -0.3829
     31 H         1.023546   -2.126808   -1.236838 H        1 UNL1     0.0937
     32 H         0.0   0.0   0.0 H        1 UNL1     0.0671
     33 H         -1.71441   0.920839   -1.768633 H        1 UNL1     0.0649
     34 H         -3.47094   -0.836611   -2.323763 H        1 UNL1     0.0683
     35 H         -2.537646   -3.057955   -2.780754 H        1 UNL1     0.1085
     36 H         -0.448281   -1.745988   -0.097717 H        1 UNL1     0.0691
     37 H         -3.63184   -4.295631   1.314538 H        1 UNL1     0.0691
     38 H         -1.776098   -3.185249   5.684423 H        1 UNL1     0.0385
     39 H         -0.430426   -4.230414   6.179737 H        1 UNL1     0.0385
     40 H         -2.490411   -5.508501   5.478095 H        1 UNL1     0.0789
     41 H         0.769793   -5.0533   3.720273 H        1 UNL1     0.0623
     42 H         2.247468   -6.925096   3.107872 H        1 UNL1     0.0654
     43 H         -0.741464   -9.724197   4.40429 H        1 UNL1     0.0654
     44 H         -2.207746   -7.897798   5.052548 H        1 UNL1     0.0623
     45 H         1.661971   -9.497469   2.346751 H        1 UNL1     0.2921
     46 H         1.53693   -2.106732   1.315746 H        1 UNL1     0.2922
     47 H         0.293794   -3.431203   0.39013 H        1 UNL1     0.2126
     48 H         -0.009826   0.282564   -2.750464 H        1 UNL1     0.2101
     49 H         -3.381225   0.437409   -0.310641 H        1 UNL1     0.2100
     50 H         -2.418311   -1.277889   -4.240508 H        1 UNL1     0.2102
@<TRIPOS>BOND
     1     1     2    1
     2     1     6    1
     3     2     3    1
     4     3     4    1
     5     3    29    1
     6     3    33    1
     7     4     5    1
     8     5     6    1
     9     5     7    1
    10     5    35    1
    11     7     8    1
    12     8     9   ar
    13     8    13   ar
    14     9    10   ar
    15     9    36    1
    16    10    11   ar
    17    10    26    1
    18    11    12   ar
    19    11    14    1
    20    12    13   ar
    21    12    17    1
    22    13    37    1
    23    14    15    1
    24    14    25    2
    25    15    16    1
    26    15    38    1
    27    15    39    1
    28    16    17    1
    29    16    18    1
    30    16    40    1
    31    18    19   ar
    32    18    23   ar
    33    19    20   ar
    34    19    41    1
    35    20    21   ar
    36    20    42    1
    37    21    22   ar
    38    21    24    1
    39    22    23   ar
    40    22    43    1
    41    23    44    1
    42    24    45    1
    43    26    46    1
    44    27    47    1
    45    28    48    1
    46    29    49    1
    47    30    50    1
    48     1    31    1
    49     1    27    1
    50     2    32    1
    51     2    28    1
    52     4    34    1
    53     4    30    1
