@<TRIPOS>MOLECULE
*****
 50 53 0 0 0
SMALL
GASTEIGER

@<TRIPOS>ATOM
     1 C         -0.325745   -1.326737   1.704249 C.3        1 UNL1     0.1889
     2 C         -0.459163   -0.976535   0.197763 C.3        1 UNL1     0.1342
     3 C         -1.900682   -0.969317   -0.333683 C.3        1 UNL1     0.1174
     4 C         -2.782859   -2.030326   0.328994 C.3        1 UNL1     0.1456
     5 C         -2.629287   -2.052832   1.860749 C.3        1 UNL1     0.2326
     6 O         -1.263289   -2.266105   2.209218 O.3        1 UNL1     -0.3076
     7 O         -3.206997   -0.906584   2.511662 O.3        1 UNL1     -0.4605
     8 C         -3.714717   -1.121742   3.780305 C.ar        1 UNL1     0.1310
     9 C         -4.527378   -2.196672   4.156349 C.ar        1 UNL1     0.0226
     10 C         -4.978522   -2.336517   5.474231 C.ar        1 UNL1     0.1343
     11 C         -4.607986   -1.416793   6.454359 C.ar        1 UNL1     0.1007
     12 C         -3.830592   -0.316866   6.082063 C.ar        1 UNL1     0.1389
     13 C         -3.37928   -0.17505   4.756304 C.ar        1 UNL1     0.0229
     14 C         -4.986699   -1.561707   7.879045 C.2        1 UNL1     0.1740
     15 C         -4.319671   -0.610028   8.828218 C.3        1 UNL1     0.0520
     16 C         -4.255282   0.761197   8.169769 C.3        1 UNL1     0.1322
     17 O         -3.497828   0.704879   6.940883 O.3        1 UNL1     -0.4828
     18 C         -5.616782   1.449254   8.04479 C.ar        1 UNL1     -0.0067
     19 C         -5.997734   2.011556   6.80911 C.ar        1 UNL1     -0.0516
     20 C         -7.215223   2.689198   6.673145 C.ar        1 UNL1     -0.0198
     21 C         -8.05532   2.817441   7.764757 C.ar        1 UNL1     0.1169
     22 C         -7.723122   2.245602   8.98602 C.ar        1 UNL1     -0.0198
     23 C         -6.514124   1.551984   9.117459 C.ar        1 UNL1     -0.0516
     24 O         -9.215308   3.516758   7.604181 O.3        1 UNL1     -0.5068
     25 O         -5.732339   -2.445089   8.293946 O.2        1 UNL1     -0.2917
     26 O         -5.769233   -3.406824   5.775567 O.3        1 UNL1     -0.5058
     27 O         -0.222952   -0.186899   2.542694 O.3        1 UNL1     -0.3648
     28 O         0.273474   -1.953861   -0.564328 O.3        1 UNL1     -0.3841
     29 O         -2.462116   0.342675   -0.25885 O.3        1 UNL1     -0.3863
     30 O         -2.431903   -3.330838   -0.191766 O.3        1 UNL1     -0.3829
     31 H         0.636659   -1.836426   1.822891 H        1 UNL1     0.0937
     32 H         0.0   0.0   0.0 H        1 UNL1     0.0671
     33 H         -1.864241   -1.210397   -1.405258 H        1 UNL1     0.0649
     34 H         -3.833846   -1.855653   0.073423 H        1 UNL1     0.0683
     35 H         -3.180836   -2.949947   2.168739 H        1 UNL1     0.1085
     36 H         -4.804192   -2.975247   3.453984 H        1 UNL1     0.0691
     37 H         -2.776172   0.690853   4.491792 H        1 UNL1     0.0691
     38 H         -3.315914   -0.996788   9.034167 H        1 UNL1     0.0385
     39 H         -4.878884   -0.591318   9.76987 H        1 UNL1     0.0385
     40 H         -3.661632   1.409162   8.828739 H        1 UNL1     0.0789
     41 H         -5.351728   1.932431   5.93959 H        1 UNL1     0.0623
     42 H         -7.49229   3.128729   5.718128 H        1 UNL1     0.0654
     43 H         -8.380539   2.327075   9.843385 H        1 UNL1     0.0654
     44 H         -6.291478   1.10879   10.083301 H        1 UNL1     0.0623
     45 H         -8.992092   4.426693   7.349406 H        1 UNL1     0.2921
     46 H         -5.363715   -3.916305   6.494869 H        1 UNL1     0.2922
     47 H         0.514975   0.371177   2.260075 H        1 UNL1     0.2126
     48 H         1.209219   -1.873027   -0.296784 H        1 UNL1     0.2101
     49 H         -2.025975   0.925375   -0.90075 H        1 UNL1     0.2100
     50 H         -2.671491   -3.350021   -1.141473 H        1 UNL1     0.2102
@<TRIPOS>BOND
     1     1     2    1
     2     1     6    1
     3     2     3    1
     4     3     4    1
     5     3    29    1
     6     3    33    1
     7     4     5    1
     8     5     6    1
     9     5     7    1
    10     5    35    1
    11     7     8    1
    12     8     9   ar
    13     8    13   ar
    14     9    10   ar
    15     9    36    1
    16    10    11   ar
    17    10    26    1
    18    11    12   ar
    19    11    14    1
    20    12    13   ar
    21    12    17    1
    22    13    37    1
    23    14    15    1
    24    14    25    2
    25    15    16    1
    26    15    38    1
    27    15    39    1
    28    16    17    1
    29    16    18    1
    30    16    40    1
    31    18    19   ar
    32    18    23   ar
    33    19    20   ar
    34    19    41    1
    35    20    21   ar
    36    20    42    1
    37    21    22   ar
    38    21    24    1
    39    22    23   ar
    40    22    43    1
    41    23    44    1
    42    24    45    1
    43    26    46    1
    44    27    47    1
    45    28    48    1
    46    29    49    1
    47    30    50    1
    48     1    31    1
    49     1    27    1
    50     2    32    1
    51     2    28    1
    52     4    34    1
    53     4    30    1
