@<TRIPOS>MOLECULE
*****
 50 53 0 0 0
SMALL
GASTEIGER

@<TRIPOS>ATOM
     1 C         -1.410551   0.947572   -1.372318 C.3        1 UNL1     0.1889
     2 C         -0.445013   0.990317   -0.157473 C.3        1 UNL1     0.1342
     3 C         -1.086518   1.465877   1.155073 C.3        1 UNL1     0.1174
     4 C         -2.157656   2.537623   0.937952 C.3        1 UNL1     0.1456
     5 C         -3.133284   2.175659   -0.196728 C.3        1 UNL1     0.2326
     6 O         -2.411503   1.954221   -1.406218 O.3        1 UNL1     -0.3076
     7 O         -4.024431   1.095701   0.136241 O.3        1 UNL1     -0.4605
     8 C         -4.514063   1.090741   1.429981 C.ar        1 UNL1     0.1310
     9 C         -4.014415   0.316307   2.482551 C.ar        1 UNL1     0.0226
     10 C         -4.569264   0.394578   3.765485 C.ar        1 UNL1     0.1343
     11 C         -5.622872   1.267665   4.032824 C.ar        1 UNL1     0.1007
     12 C         -6.157099   2.01589   2.980425 C.ar        1 UNL1     0.1389
     13 C         -5.600745   1.935055   1.689934 C.ar        1 UNL1     0.0229
     14 C         -6.191848   1.452074   5.387967 C.2        1 UNL1     0.1740
     15 C         -7.162001   2.587185   5.535871 C.3        1 UNL1     0.0520
     16 C         -8.051088   2.625149   4.300541 C.3        1 UNL1     0.1322
     17 O         -7.262202   2.825217   3.106933 O.3        1 UNL1     -0.4828
     18 C         -9.041847   1.46137   4.218443 C.ar        1 UNL1     -0.0067
     19 C         -9.663659   0.996868   5.395644 C.ar        1 UNL1     -0.0516
     20 C         -10.538367   -0.095732   5.362884 C.ar        1 UNL1     -0.0198
     21 C         -10.793199   -0.735566   4.163092 C.ar        1 UNL1     0.1169
     22 C         -10.222062   -0.280576   2.981726 C.ar        1 UNL1     -0.0198
     23 C         -9.361709   0.823496   3.011298 C.ar        1 UNL1     -0.0516
     24 O         -11.620876   -1.819624   4.176126 O.3        1 UNL1     -0.5068
     25 O         -5.849211   0.786217   6.361476 O.2        1 UNL1     -0.2917
     26 O         -4.03654   -0.388143   4.747899 O.3        1 UNL1     -0.5058
     27 O         -1.953952   -0.339811   -1.61757 O.3        1 UNL1     -0.3648
     28 O         0.630907   1.897275   -0.461659 O.3        1 UNL1     -0.3841
     29 O         -1.561562   0.355368   1.918771 O.3        1 UNL1     -0.3863
     30 O         -1.515707   3.790593   0.615991 O.3        1 UNL1     -0.3829
     31 H         -0.805157   1.158428   -2.26064 H        1 UNL1     0.0937
     32 H         0.0   0.0   0.0 H        1 UNL1     0.0671
     33 H         -0.297393   1.924636   1.767071 H        1 UNL1     0.0649
     34 H         -2.722072   2.695214   1.863695 H        1 UNL1     0.0683
     35 H         -3.723112   3.08968   -0.340067 H        1 UNL1     0.1085
     36 H         -3.160957   -0.340043   2.352414 H        1 UNL1     0.0691
     37 H         -6.035633   2.527114   0.887543 H        1 UNL1     0.0691
     38 H         -6.579923   3.509931   5.632059 H        1 UNL1     0.0385
     39 H         -7.738554   2.448892   6.45687 H        1 UNL1     0.0385
     40 H         -8.670368   3.529282   4.375085 H        1 UNL1     0.0789
     41 H         -9.472956   1.476257   6.3514 H        1 UNL1     0.0623
     42 H         -11.002386   -0.45191   6.27931 H        1 UNL1     0.0654
     43 H         -10.426523   -0.764884   2.034334 H        1 UNL1     0.0654
     44 H         -8.941466   1.158507   2.067895 H        1 UNL1     0.0623
     45 H         -11.134632   -2.572254   4.550065 H        1 UNL1     0.2921
     46 H         -3.642873   -1.181502   4.351642 H        1 UNL1     0.2922
     47 H         -1.250451   -1.003768   -1.627864 H        1 UNL1     0.2126
     48 H         1.447292   1.489381   -0.113994 H        1 UNL1     0.2101
     49 H         -0.999431   -0.41946   1.759259 H        1 UNL1     0.2100
     50 H         -0.565635   3.610898   0.458559 H        1 UNL1     0.2102
@<TRIPOS>BOND
     1     1     2    1
     2     1     6    1
     3     2     3    1
     4     3     4    1
     5     3    29    1
     6     3    33    1
     7     4     5    1
     8     5     6    1
     9     5     7    1
    10     5    35    1
    11     7     8    1
    12     8     9   ar
    13     8    13   ar
    14     9    10   ar
    15     9    36    1
    16    10    11   ar
    17    10    26    1
    18    11    12   ar
    19    11    14    1
    20    12    13   ar
    21    12    17    1
    22    13    37    1
    23    14    15    1
    24    14    25    2
    25    15    16    1
    26    15    38    1
    27    15    39    1
    28    16    17    1
    29    16    18    1
    30    16    40    1
    31    18    19   ar
    32    18    23   ar
    33    19    20   ar
    34    19    41    1
    35    20    21   ar
    36    20    42    1
    37    21    22   ar
    38    21    24    1
    39    22    23   ar
    40    22    43    1
    41    23    44    1
    42    24    45    1
    43    26    46    1
    44    27    47    1
    45    28    48    1
    46    29    49    1
    47    30    50    1
    48     1    31    1
    49     1    27    1
    50     2    32    1
    51     2    28    1
    52     4    34    1
    53     4    30    1
