@<TRIPOS>MOLECULE
*****
 50 53 0 0 0
SMALL
GASTEIGER

@<TRIPOS>ATOM
     1 C         -1.602319   0.106917   1.480522 C.3        1 UNL1     0.1889
     2 C         -0.131466   0.331248   1.037571 C.3        1 UNL1     0.1342
     3 C         0.917137   -0.361389   1.921398 C.3        1 UNL1     0.1174
     4 C         0.516448   -0.399975   3.398245 C.3        1 UNL1     0.1456
     5 C         -0.94135   -0.850964   3.602691 C.3        1 UNL1     0.2326
     6 O         -1.821444   0.006904   2.879942 O.3        1 UNL1     -0.3076
     7 O         -1.15439   -2.246385   3.322094 O.3        1 UNL1     -0.4605
     8 C         -2.459035   -2.693781   3.428232 C.ar        1 UNL1     0.1310
     9 C         -3.566505   -1.896576   3.7369 C.ar        1 UNL1     0.0226
     10 C         -4.854255   -2.441581   3.804506 C.ar        1 UNL1     0.1343
     11 C         -5.069157   -3.793781   3.541423 C.ar        1 UNL1     0.1007
     12 C         -3.96584   -4.608096   3.272412 C.ar        1 UNL1     0.1389
     13 C         -2.670786   -4.060375   3.207092 C.ar        1 UNL1     0.0229
     14 C         -6.418275   -4.404861   3.516579 C.2        1 UNL1     0.1740
     15 C         -6.484372   -5.811745   2.99903 C.3        1 UNL1     0.0520
     16 C         -5.285555   -6.580146   3.537876 C.3        1 UNL1     0.1322
     17 O         -4.049237   -5.970913   3.104954 O.3        1 UNL1     -0.4828
     18 C         -5.360596   -6.864773   5.039901 C.ar        1 UNL1     -0.0067
     19 C         -6.324119   -7.77256   5.525454 C.ar        1 UNL1     -0.0516
     20 C         -6.451045   -8.019652   6.897605 C.ar        1 UNL1     -0.0198
     21 C         -5.627225   -7.361236   7.792946 C.ar        1 UNL1     0.1169
     22 C         -4.646508   -6.48686   7.342945 C.ar        1 UNL1     -0.0198
     23 C         -4.507066   -6.253541   5.969565 C.ar        1 UNL1     -0.0516
     24 O         -5.80532   -7.598675   9.124226 O.3        1 UNL1     -0.5068
     25 O         -7.441802   -3.796296   3.817456 O.2        1 UNL1     -0.2917
     26 O         -5.891617   -1.610217   4.111587 O.3        1 UNL1     -0.5058
     27 O         -2.253097   -0.936233   0.772628 O.3        1 UNL1     -0.3648
     28 O         0.144873   1.743748   1.071998 O.3        1 UNL1     -0.3841
     29 O         1.244503   -1.652159   1.402864 O.3        1 UNL1     -0.3863
     30 O         0.678968   0.917189   3.967767 O.3        1 UNL1     -0.3829
     31 H         -2.155065   1.009753   1.198674 H        1 UNL1     0.0937
     32 H         0.0   0.0   0.0 H        1 UNL1     0.0671
     33 H         1.846267   0.222208   1.859336 H        1 UNL1     0.0649
     34 H         1.183587   -1.07202   3.949317 H        1 UNL1     0.0683
     35 H         -1.126402   -0.672282   4.669324 H        1 UNL1     0.1085
     36 H         -3.473082   -0.828008   3.896759 H        1 UNL1     0.0691
     37 H         -1.828374   -4.715871   2.996951 H        1 UNL1     0.0691
     38 H         -6.463332   -5.76352   1.905065 H        1 UNL1     0.0385
     39 H         -7.435477   -6.261828   3.303337 H        1 UNL1     0.0385
     40 H         -5.289504   -7.566549   3.054643 H        1 UNL1     0.0789
     41 H         -6.988838   -8.295136   4.843755 H        1 UNL1     0.0623
     42 H         -7.205849   -8.712909   7.260478 H        1 UNL1     0.0654
     43 H         -3.986052   -5.977337   8.034388 H        1 UNL1     0.0654
     44 H         -3.723294   -5.572301   5.652611 H        1 UNL1     0.0623
     45 H         -4.935936   -7.589265   9.556429 H        1 UNL1     0.2921
     46 H         -5.543902   -0.774173   4.460209 H        1 UNL1     0.2922
     47 H         -1.713234   -1.738835   0.788018 H        1 UNL1     0.2126
     48 H         1.114215   1.840849   1.003587 H        1 UNL1     0.2101
     49 H         1.325466   -2.289264   2.130419 H        1 UNL1     0.2100
     50 H         1.637611   1.116836   3.997033 H        1 UNL1     0.2102
@<TRIPOS>BOND
     1     1     2    1
     2     1     6    1
     3     2     3    1
     4     3     4    1
     5     3    29    1
     6     3    33    1
     7     4     5    1
     8     5     6    1
     9     5     7    1
    10     5    35    1
    11     7     8    1
    12     8     9   ar
    13     8    13   ar
    14     9    10   ar
    15     9    36    1
    16    10    11   ar
    17    10    26    1
    18    11    12   ar
    19    11    14    1
    20    12    13   ar
    21    12    17    1
    22    13    37    1
    23    14    15    1
    24    14    25    2
    25    15    16    1
    26    15    38    1
    27    15    39    1
    28    16    17    1
    29    16    18    1
    30    16    40    1
    31    18    19   ar
    32    18    23   ar
    33    19    20   ar
    34    19    41    1
    35    20    21   ar
    36    20    42    1
    37    21    22   ar
    38    21    24    1
    39    22    23   ar
    40    22    43    1
    41    23    44    1
    42    24    45    1
    43    26    46    1
    44    27    47    1
    45    28    48    1
    46    29    49    1
    47    30    50    1
    48     1    31    1
    49     1    27    1
    50     2    32    1
    51     2    28    1
    52     4    34    1
    53     4    30    1
