@<TRIPOS>MOLECULE
*****
 50 53 0 0 0
SMALL
GASTEIGER

@<TRIPOS>ATOM
     1 C         1.295296   -0.182686   1.749182 C.3        1 UNL1     0.1889
     2 C         -0.015663   0.282423   1.059978 C.3        1 UNL1     0.1342
     3 C         -0.300443   1.787922   1.173278 C.3        1 UNL1     0.1174
     4 C         0.165003   2.381394   2.505295 C.3        1 UNL1     0.1456
     5 C         1.588304   1.934146   2.885486 C.3        1 UNL1     0.2326
     6 O         1.653447   0.510725   2.935481 O.3        1 UNL1     -0.3076
     7 O         2.612452   2.518838   2.060514 O.3        1 UNL1     -0.4605
     8 C         2.467134   3.864853   1.776519 C.ar        1 UNL1     0.1310
     9 C         3.488799   4.819149   1.829623 C.ar        1 UNL1     0.0226
     10 C         3.244942   6.159243   1.506227 C.ar        1 UNL1     0.1343
     11 C         1.977637   6.573397   1.098483 C.ar        1 UNL1     0.1007
     12 C         0.939843   5.637734   1.081091 C.ar        1 UNL1     0.1389
     13 C         1.184693   4.290867   1.408857 C.ar        1 UNL1     0.0229
     14 C         1.683993   7.959035   0.664968 C.2        1 UNL1     0.1740
     15 C         0.332563   8.174138   0.049408 C.3        1 UNL1     0.0520
     16 C         -0.689608   7.365804   0.83663 C.3        1 UNL1     0.1322
     17 O         -0.368137   5.957831   0.800035 O.3        1 UNL1     -0.4828
     18 C         -0.96468   7.917478   2.2376 C.ar        1 UNL1     -0.0067
     19 C         -0.914584   9.309623   2.455853 C.ar        1 UNL1     -0.0516
     20 C         -1.114364   9.843924   3.734357 C.ar        1 UNL1     -0.0198
     21 C         -1.357215   8.99808   4.801783 C.ar        1 UNL1     0.1169
     22 C         -1.445702   7.625069   4.61244 C.ar        1 UNL1     -0.0198
     23 C         -1.264264   7.09182   3.330729 C.ar        1 UNL1     -0.0516
     24 O         -1.509211   9.552015   6.038898 O.3        1 UNL1     -0.5068
     25 O         2.503108   8.872559   0.719834 O.2        1 UNL1     -0.2917
     26 O         4.284237   7.040217   1.579268 O.3        1 UNL1     -0.5058
     27 O         2.392962   -0.296889   0.857626 O.3        1 UNL1     -0.3648
     28 O         -1.121477   -0.409744   1.6689 O.3        1 UNL1     -0.3841
     29 O         0.221132   2.489122   0.04261 O.3        1 UNL1     -0.3863
     30 O         -0.74457   1.972287   3.549804 O.3        1 UNL1     -0.3829
     31 H         1.120601   -1.207545   2.094473 H        1 UNL1     0.0937
     32 H         0.0   0.0   -0.0 H        1 UNL1     0.0671
     33 H         -1.389472   1.927676   1.126339 H        1 UNL1     0.0649
     34 H         0.129726   3.475513   2.459917 H        1 UNL1     0.0683
     35 H         1.713259   2.29547   3.913936 H        1 UNL1     0.1085
     36 H         4.507827   4.549927   2.085009 H        1 UNL1     0.0691
     37 H         0.359467   3.582288   1.388605 H        1 UNL1     0.0691
     38 H         0.385382   7.837539   -0.991476 H        1 UNL1     0.0385
     39 H         0.103661   9.245296   0.051307 H        1 UNL1     0.0385
     40 H         -1.645453   7.443187   0.301007 H        1 UNL1     0.0789
     41 H         -0.716534   9.994068   1.63612 H        1 UNL1     0.0623
     42 H         -1.061459   10.918338   3.891986 H        1 UNL1     0.0654
     43 H         -1.650316   6.954702   5.438667 H        1 UNL1     0.0654
     44 H         -1.350734   6.015473   3.217394 H        1 UNL1     0.0623
     45 H         -2.343112   10.049162   6.051976 H        1 UNL1     0.2921
     46 H         4.801874   6.998549   0.759678 H        1 UNL1     0.2922
     47 H         3.208525   -0.464032   1.350354 H        1 UNL1     0.2126
     48 H         -1.160676   -0.111499   2.598009 H        1 UNL1     0.2101
     49 H         1.085891   2.871339   0.261462 H        1 UNL1     0.2100
     50 H         -0.214269   1.585   4.276785 H        1 UNL1     0.2102
@<TRIPOS>BOND
     1     1     2    1
     2     1     6    1
     3     2     3    1
     4     3     4    1
     5     3    29    1
     6     3    33    1
     7     4     5    1
     8     5     6    1
     9     5     7    1
    10     5    35    1
    11     7     8    1
    12     8     9   ar
    13     8    13   ar
    14     9    10   ar
    15     9    36    1
    16    10    11   ar
    17    10    26    1
    18    11    12   ar
    19    11    14    1
    20    12    13   ar
    21    12    17    1
    22    13    37    1
    23    14    15    1
    24    14    25    2
    25    15    16    1
    26    15    38    1
    27    15    39    1
    28    16    17    1
    29    16    18    1
    30    16    40    1
    31    18    19   ar
    32    18    23   ar
    33    19    20   ar
    34    19    41    1
    35    20    21   ar
    36    20    42    1
    37    21    22   ar
    38    21    24    1
    39    22    23   ar
    40    22    43    1
    41    23    44    1
    42    24    45    1
    43    26    46    1
    44    27    47    1
    45    28    48    1
    46    29    49    1
    47    30    50    1
    48     1    31    1
    49     1    27    1
    50     2    32    1
    51     2    28    1
    52     4    34    1
    53     4    30    1
