@<TRIPOS>MOLECULE
*****
 50 53 0 0 0
SMALL
GASTEIGER

@<TRIPOS>ATOM
     1 C         0.245333   1.487914   1.580104 C.3        1 UNL1     0.1889
     2 C         0.758469   0.288863   0.738136 C.3        1 UNL1     0.1342
     3 C         1.155508   -0.947753   1.558871 C.3        1 UNL1     0.1174
     4 C         1.774917   -0.588349   2.911749 C.3        1 UNL1     0.1456
     5 C         0.97007   0.48858   3.661955 C.3        1 UNL1     0.2326
     6 O         0.850221   1.656976   2.853652 O.3        1 UNL1     -0.3076
     7 O         -0.293323   0.014962   4.1628 O.3        1 UNL1     -0.4605
     8 C         -0.480024   -1.355458   4.137908 C.ar        1 UNL1     0.1310
     9 C         0.37689   -2.279115   3.529751 C.ar        1 UNL1     0.0226
     10 C         0.109276   -3.652561   3.573717 C.ar        1 UNL1     0.1343
     11 C         -1.010342   -4.137936   4.248038 C.ar        1 UNL1     0.1007
     12 C         -1.895204   -3.222498   4.824037 C.ar        1 UNL1     0.1389
     13 C         -1.627291   -1.841382   4.777421 C.ar        1 UNL1     0.0229
     14 C         -1.296434   -5.583612   4.397457 C.2        1 UNL1     0.1740
     15 C         -2.413069   -5.930707   5.337777 C.3        1 UNL1     0.0520
     16 C         -3.539022   -4.925043   5.140733 C.3        1 UNL1     0.1322
     17 O         -3.082247   -3.582913   5.418424 O.3        1 UNL1     -0.4828
     18 C         -4.278389   -5.080828   3.809646 C.ar        1 UNL1     -0.0067
     19 C         -3.647199   -4.676434   2.615377 C.ar        1 UNL1     -0.0516
     20 C         -4.312962   -4.76112   1.38674 C.ar        1 UNL1     -0.0198
     21 C         -5.609833   -5.240473   1.340113 C.ar        1 UNL1     0.1169
     22 C         -6.24598   -5.677655   2.494681 C.ar        1 UNL1     -0.0198
     23 C         -5.573825   -5.610329   3.720949 C.ar        1 UNL1     -0.0516
     24 O         -6.239768   -5.272945   0.130763 O.3        1 UNL1     -0.5068
     25 O         -0.627982   -6.463984   3.862105 O.2        1 UNL1     -0.2917
     26 O         0.98422   -4.500551   2.959739 O.3        1 UNL1     -0.5058
     27 O         -1.169421   1.559289   1.658616 O.3        1 UNL1     -0.3648
     28 O         1.925026   0.710665   0.00743 O.3        1 UNL1     -0.3841
     29 O         0.055785   -1.852676   1.676581 O.3        1 UNL1     -0.3863
     30 O         3.118794   -0.102292   2.703344 O.3        1 UNL1     -0.3829
     31 H         0.531476   2.395932   1.038158 H        1 UNL1     0.0937
     32 H         0.0   -0.0   0.0 H        1 UNL1     0.0671
     33 H         1.923205   -1.493592   0.992812 H        1 UNL1     0.0649
     34 H         1.851557   -1.48422   3.537802 H        1 UNL1     0.0683
     35 H         1.61095   0.753359   4.512275 H        1 UNL1     0.1085
     36 H         1.292679   -1.969542   3.038206 H        1 UNL1     0.0691
     37 H         -2.332517   -1.149314   5.232604 H        1 UNL1     0.0691
     38 H         -2.014743   -5.882983   6.356888 H        1 UNL1     0.0385
     39 H         -2.737883   -6.95892   5.145289 H        1 UNL1     0.0385
     40 H         -4.291021   -5.125036   5.915989 H        1 UNL1     0.0789
     41 H         -2.632935   -4.288112   2.626572 H        1 UNL1     0.0623
     42 H         -3.819776   -4.435014   0.474362 H        1 UNL1     0.0654
     43 H         -7.25601   -6.068818   2.467441 H        1 UNL1     0.0654
     44 H         -6.097313   -5.970397   4.601379 H        1 UNL1     0.0623
     45 H         -5.582007   -5.100842   -0.562379 H        1 UNL1     0.2921
     46 H         0.86528   -5.39749   3.310116 H        1 UNL1     0.2922
     47 H         -1.570347   1.079426   0.920477 H        1 UNL1     0.2126
     48 H         1.650479   1.467856   -0.544853 H        1 UNL1     0.2101
     49 H         0.38224   -2.765871   1.712583 H        1 UNL1     0.2100
     50 H         3.058492   0.776159   2.273925 H        1 UNL1     0.2102
@<TRIPOS>BOND
     1     1     2    1
     2     1     6    1
     3     2     3    1
     4     3     4    1
     5     3    29    1
     6     3    33    1
     7     4     5    1
     8     5     6    1
     9     5     7    1
    10     5    35    1
    11     7     8    1
    12     8     9   ar
    13     8    13   ar
    14     9    10   ar
    15     9    36    1
    16    10    11   ar
    17    10    26    1
    18    11    12   ar
    19    11    14    1
    20    12    13   ar
    21    12    17    1
    22    13    37    1
    23    14    15    1
    24    14    25    2
    25    15    16    1
    26    15    38    1
    27    15    39    1
    28    16    17    1
    29    16    18    1
    30    16    40    1
    31    18    19   ar
    32    18    23   ar
    33    19    20   ar
    34    19    41    1
    35    20    21   ar
    36    20    42    1
    37    21    22   ar
    38    21    24    1
    39    22    23   ar
    40    22    43    1
    41    23    44    1
    42    24    45    1
    43    26    46    1
    44    27    47    1
    45    28    48    1
    46    29    49    1
    47    30    50    1
    48     1    31    1
    49     1    27    1
    50     2    32    1
    51     2    28    1
    52     4    34    1
    53     4    30    1
