@<TRIPOS>MOLECULE
*****
 50 53 0 0 0
SMALL
GASTEIGER

@<TRIPOS>ATOM
     1 C         -0.345671   -1.336371   1.692758 C.3        1 UNL1     0.1889
     2 C         -0.46914   -0.973642   0.18839 C.3        1 UNL1     0.1342
     3 C         -1.908162   -0.948919   -0.349262 C.3        1 UNL1     0.1174
     4 C         -2.80314   -2.00655   0.301544 C.3        1 UNL1     0.1456
     5 C         -2.656569   -2.041985   1.83374 C.3        1 UNL1     0.2326
     6 O         -1.294179   -2.270667   2.186538 O.3        1 UNL1     -0.3076
     7 O         -3.226417   -0.895284   2.490757 O.3        1 UNL1     -0.4605
     8 C         -3.741737   -1.115182   3.755517 C.ar        1 UNL1     0.1310
     9 C         -4.566065   -2.185234   4.119898 C.ar        1 UNL1     0.0226
     10 C         -5.024326   -2.330723   5.43471 C.ar        1 UNL1     0.1343
     11 C         -4.649554   -1.421893   6.423353 C.ar        1 UNL1     0.1007
     12 C         -3.860274   -0.326544   6.062754 C.ar        1 UNL1     0.1389
     13 C         -3.401792   -0.179025   4.740081 C.ar        1 UNL1     0.0229
     14 C         -5.035908   -1.573933   7.845241 C.2        1 UNL1     0.1740
     15 C         -4.364224   -0.635698   8.804462 C.3        1 UNL1     0.0520
     16 C         -4.284109   0.739763   8.156662 C.3        1 UNL1     0.1322
     17 O         -3.521782   0.685564   6.930697 O.3        1 UNL1     -0.4828
     18 C         -5.638553   1.441477   8.030946 C.ar        1 UNL1     -0.0067
     19 C         -6.002421   2.029578   6.802145 C.ar        1 UNL1     -0.0516
     20 C         -7.212841   2.719863   6.666677 C.ar        1 UNL1     -0.0198
     21 C         -8.062766   2.835128   7.752111 C.ar        1 UNL1     0.1169
     22 C         -7.747583   2.238168   8.96584 C.ar        1 UNL1     -0.0198
     23 C         -6.545739   1.532065   9.096404 C.ar        1 UNL1     -0.0516
     24 O         -9.215265   3.547051   7.593005 O.3        1 UNL1     -0.5068
     25 O         -5.7916   -2.453371   8.250215 O.2        1 UNL1     -0.2917
     26 O         -5.826331   -3.395799   5.724516 O.3        1 UNL1     -0.5058
     27 O         -0.235944   -0.203869   2.540217 O.3        1 UNL1     -0.3648
     28 O         0.257698   -1.952051   -0.577853 O.3        1 UNL1     -0.3841
     29 O         -2.457636   0.367683   -0.266982 O.3        1 UNL1     -0.3863
     30 O         -2.462052   -3.306352   -0.227477 O.3        1 UNL1     -0.3829
     31 H         0.611393   -1.855939   1.811744 H        1 UNL1     0.0937
     32 H         0.0   0.0   0.0 H        1 UNL1     0.0671
     33 H         -1.869232   -1.182285   -1.422456 H        1 UNL1     0.0649
     34 H         -3.851307   -1.820115   0.042721 H        1 UNL1     0.0683
     35 H         -3.217835   -2.936173   2.132549 H        1 UNL1     0.1085
     36 H         -4.847031   -2.955887   3.410481 H        1 UNL1     0.0691
     37 H         -2.789453   0.683143   4.484738 H        1 UNL1     0.0691
     38 H         -3.365047   -1.033389   9.011859 H        1 UNL1     0.0385
     39 H         -4.927402   -0.618809   9.743784 H        1 UNL1     0.0385
     40 H         -3.687353   1.37717   8.823081 H        1 UNL1     0.0789
     41 H         -5.348394   1.960981   5.937741 H        1 UNL1     0.0623
     42 H         -7.476665   3.179185   5.717239 H        1 UNL1     0.0654
     43 H         -8.412878   2.309432   9.818022 H        1 UNL1     0.0654
     44 H         -6.33647   1.069341   10.056059 H        1 UNL1     0.0623
     45 H         -8.981941   4.460284   7.360021 H        1 UNL1     0.2921
     46 H         -5.428695   -3.914539   6.441597 H        1 UNL1     0.2922
     47 H         0.508833   0.34901   2.265456 H        1 UNL1     0.2126
     48 H         1.193413   -1.880058   -0.307692 H        1 UNL1     0.2101
     49 H         -3.150012   0.394454   0.412497 H        1 UNL1     0.2100
     50 H         -2.697601   -3.316163   -1.178336 H        1 UNL1     0.2102
@<TRIPOS>BOND
     1     1     2    1
     2     1     6    1
     3     2     3    1
     4     3     4    1
     5     3    29    1
     6     3    33    1
     7     4     5    1
     8     5     6    1
     9     5     7    1
    10     5    35    1
    11     7     8    1
    12     8     9   ar
    13     8    13   ar
    14     9    10   ar
    15     9    36    1
    16    10    11   ar
    17    10    26    1
    18    11    12   ar
    19    11    14    1
    20    12    13   ar
    21    12    17    1
    22    13    37    1
    23    14    15    1
    24    14    25    2
    25    15    16    1
    26    15    38    1
    27    15    39    1
    28    16    17    1
    29    16    18    1
    30    16    40    1
    31    18    19   ar
    32    18    23   ar
    33    19    20   ar
    34    19    41    1
    35    20    21   ar
    36    20    42    1
    37    21    22   ar
    38    21    24    1
    39    22    23   ar
    40    22    43    1
    41    23    44    1
    42    24    45    1
    43    26    46    1
    44    27    47    1
    45    28    48    1
    46    29    49    1
    47    30    50    1
    48     1    31    1
    49     1    27    1
    50     2    32    1
    51     2    28    1
    52     4    34    1
    53     4    30    1
