@<TRIPOS>MOLECULE
*****
 50 53 0 0 0
SMALL
GASTEIGER

@<TRIPOS>ATOM
     1 C         0.324954   -1.211632   1.78806 C.3        1 UNL1     0.1889
     2 C         0.664343   -0.809236   0.327638 C.3        1 UNL1     0.1342
     3 C         0.591287   -1.959741   -0.687974 C.3        1 UNL1     0.1174
     4 C         1.032511   -3.301385   -0.097694 C.3        1 UNL1     0.1456
     5 C         0.401073   -3.576648   1.279216 C.3        1 UNL1     0.2326
     6 O         0.719066   -2.518291   2.180121 O.3        1 UNL1     -0.3076
     7 O         -1.008096   -3.862423   1.216798 O.3        1 UNL1     -0.4605
     8 C         -1.695019   -3.789926   2.4153 C.ar        1 UNL1     0.1310
     9 C         -1.603193   -2.744039   3.339957 C.ar        1 UNL1     0.0226
     10 C         -2.354657   -2.75419   4.521101 C.ar        1 UNL1     0.1343
     11 C         -3.234934   -3.800039   4.79524 C.ar        1 UNL1     0.1007
     12 C         -3.30468   -4.870031   3.899116 C.ar        1 UNL1     0.1389
     13 C         -2.547012   -4.860863   2.712825 C.ar        1 UNL1     0.0229
     14 C         -4.114691   -3.82078   5.986773 C.2        1 UNL1     0.1740
     15 C         -5.152656   -4.904153   6.008696 C.3        1 UNL1     0.0520
     16 C         -4.524122   -6.184423   5.475958 C.3        1 UNL1     0.1322
     17 O         -4.055778   -6.00077   4.121708 O.3        1 UNL1     -0.4828
     18 C         -3.496067   -6.806861   6.423796 C.ar        1 UNL1     -0.0067
     19 C         -3.003674   -8.101147   6.158114 C.ar        1 UNL1     -0.0516
     20 C         -2.098762   -8.718407   7.029944 C.ar        1 UNL1     -0.0198
     21 C         -1.685167   -8.056304   8.172041 C.ar        1 UNL1     0.1169
     22 C         -2.126485   -6.767757   8.443565 C.ar        1 UNL1     -0.0198
     23 C         -3.017117   -6.143019   7.562355 C.ar        1 UNL1     -0.0516
     24 O         -0.832592   -8.703961   9.017059 O.3        1 UNL1     -0.5068
     25 O         -4.072306   -2.971867   6.873359 O.2        1 UNL1     -0.2917
     26 O         -2.218354   -1.704331   5.3818 O.3        1 UNL1     -0.5058
     27 O         -1.018852   -0.938591   2.151957 O.3        1 UNL1     -0.3648
     28 O         2.008849   -0.295366   0.296837 O.3        1 UNL1     -0.3841
     29 O         -0.701596   -2.02001   -1.293741 O.3        1 UNL1     -0.3863
     30 O         2.469986   -3.308002   0.041271 O.3        1 UNL1     -0.3829
     31 H         0.91822   -0.559359   2.438179 H        1 UNL1     0.0937
     32 H         0.0   0.0   -0.0 H        1 UNL1     0.0671
     33 H         1.286734   -1.728763   -1.506951 H        1 UNL1     0.0649
     34 H         0.773051   -4.115253   -0.78377 H        1 UNL1     0.0683
     35 H         0.927686   -4.469895   1.637917 H        1 UNL1     0.1085
     36 H         -0.979326   -1.875702   3.158571 H        1 UNL1     0.0691
     37 H         -2.618416   -5.706456   2.032115 H        1 UNL1     0.0691
     38 H         -5.984299   -4.578897   5.374578 H        1 UNL1     0.0385
     39 H         -5.527645   -5.021328   7.03116 H        1 UNL1     0.0385
     40 H         -5.327838   -6.928181   5.390022 H        1 UNL1     0.0789
     41 H         -3.320028   -8.645455   5.273072 H        1 UNL1     0.0623
     42 H         -1.735506   -9.721443   6.820237 H        1 UNL1     0.0654
     43 H         -1.797312   -6.234285   9.327286 H        1 UNL1     0.0654
     44 H         -3.333105   -5.131869   7.800205 H        1 UNL1     0.0623
     45 H         -0.291639   -9.318596   8.495226 H        1 UNL1     0.2921
     46 H         -1.558475   -1.924167   6.058295 H        1 UNL1     0.2922
     47 H         -1.421828   -0.332655   1.514532 H        1 UNL1     0.2126
     48 H         2.089107   0.323275   1.048218 H        1 UNL1     0.2101
     49 H         -0.623584   -1.887493   -2.251941 H        1 UNL1     0.2100
     50 H         2.85162   -3.659398   -0.789745 H        1 UNL1     0.2102
@<TRIPOS>BOND
     1     1     2    1
     2     1     6    1
     3     2     3    1
     4     3     4    1
     5     3    29    1
     6     3    33    1
     7     4     5    1
     8     5     6    1
     9     5     7    1
    10     5    35    1
    11     7     8    1
    12     8     9   ar
    13     8    13   ar
    14     9    10   ar
    15     9    36    1
    16    10    11   ar
    17    10    26    1
    18    11    12   ar
    19    11    14    1
    20    12    13   ar
    21    12    17    1
    22    13    37    1
    23    14    15    1
    24    14    25    2
    25    15    16    1
    26    15    38    1
    27    15    39    1
    28    16    17    1
    29    16    18    1
    30    16    40    1
    31    18    19   ar
    32    18    23   ar
    33    19    20   ar
    34    19    41    1
    35    20    21   ar
    36    20    42    1
    37    21    22   ar
    38    21    24    1
    39    22    23   ar
    40    22    43    1
    41    23    44    1
    42    24    45    1
    43    26    46    1
    44    27    47    1
    45    28    48    1
    46    29    49    1
    47    30    50    1
    48     1    31    1
    49     1    27    1
    50     2    32    1
    51     2    28    1
    52     4    34    1
    53     4    30    1
