@<TRIPOS>MOLECULE
*****
 50 53 0 0 0
SMALL
GASTEIGER

@<TRIPOS>ATOM
     1 C         1.818154   -0.789567   0.917444 C.3        1 UNL1     0.1889
     2 C         0.292923   -0.84614   0.63388 C.3        1 UNL1     0.1342
     3 C         -0.592566   -0.861888   1.889319 C.3        1 UNL1     0.1174
     4 C         0.040609   -1.629349   3.052595 C.3        1 UNL1     0.1456
     5 C         1.517058   -1.253148   3.273808 C.3        1 UNL1     0.2326
     6 O         2.26035   -1.477946   2.078044 O.3        1 UNL1     -0.3076
     7 O         1.697167   0.069511   3.811819 O.3        1 UNL1     -0.4605
     8 C         0.600085   0.908798   3.737413 C.ar        1 UNL1     0.1310
     9 C         -0.672302   0.541219   3.286618 C.ar        1 UNL1     0.0226
     10 C         -1.726468   1.462179   3.264987 C.ar        1 UNL1     0.1343
     11 C         -1.539672   2.767979   3.716467 C.ar        1 UNL1     0.1007
     12 C         -0.263269   3.158132   4.130425 C.ar        1 UNL1     0.1389
     13 C         0.797176   2.232649   4.149593 C.ar        1 UNL1     0.0229
     14 C         -2.638637   3.758119   3.794267 C.2        1 UNL1     0.1740
     15 C         -2.311687   5.036144   4.509322 C.3        1 UNL1     0.0520
     16 C         -0.901779   5.45885   4.120175 C.3        1 UNL1     0.1322
     17 O         0.058439   4.445675   4.492371 O.3        1 UNL1     -0.4828
     18 C         -0.781594   5.946081   2.674186 C.ar        1 UNL1     -0.0067
     19 C         0.487646   6.281439   2.15962 C.ar        1 UNL1     -0.0516
     20 C         0.627115   6.775095   0.857002 C.ar        1 UNL1     -0.0198
     21 C         -0.493216   6.944516   0.063288 C.ar        1 UNL1     0.1169
     22 C         -1.752728   6.591666   0.530154 C.ar        1 UNL1     -0.0198
     23 C         -1.890356   6.080622   1.826283 C.ar        1 UNL1     -0.0516
     24 O         -0.322704   7.463353   -1.186566 O.3        1 UNL1     -0.5068
     25 O         -3.774658   3.541194   3.380887 O.2        1 UNL1     -0.2917
     26 O         -2.942677   1.040506   2.812646 O.3        1 UNL1     -0.5058
     27 O         2.357859   0.520663   0.848142 O.3        1 UNL1     -0.3648
     28 O         0.010603   -2.049336   -0.104579 O.3        1 UNL1     -0.3841
     29 O         -0.985161   0.464094   2.24956 O.3        1 UNL1     -0.3863
     30 O         -0.042377   -3.046346   2.786285 O.3        1 UNL1     -0.3829
     31 H         2.308734   -1.32694   0.098517 H        1 UNL1     0.0937
     32 H         -0.0   0.0   0.0 H        1 UNL1     0.0671
     33 H         -1.525788   -1.383528   1.63494 H        1 UNL1     0.0649
     34 H         -0.522083   -1.442873   3.97401 H        1 UNL1     0.0683
     35 H         1.86917   -1.985839   4.010733 H        1 UNL1     0.1085
     36 H         -0.895904   -0.473285   2.975321 H        1 UNL1     0.0691
     37 H         1.781631   2.561705   4.475269 H        1 UNL1     0.0691
     38 H         -2.382996   4.841516   5.584758 H        1 UNL1     0.0385
     39 H         -3.058036   5.794314   4.248705 H        1 UNL1     0.0385
     40 H         -0.640692   6.326076   4.741683 H        1 UNL1     0.0789
     41 H         1.381444   6.16619   2.765832 H        1 UNL1     0.0623
     42 H         1.609885   7.041331   0.475827 H        1 UNL1     0.0654
     43 H         -2.634971   6.70612   -0.088277 H        1 UNL1     0.0654
     44 H         -2.887997   5.805405   2.154633 H        1 UNL1     0.0623
     45 H         0.616618   7.679575   -1.303353 H        1 UNL1     0.2921
     46 H         -3.577689   1.772457   2.86185 H        1 UNL1     0.2922
     47 H         1.673652   1.151004   0.582826 H        1 UNL1     0.2126
     48 H         0.119974   -2.792611   0.51937 H        1 UNL1     0.2101
     49 H         -0.323067   1.100831   1.936523 H        1 UNL1     0.2100
     50 H         -0.98522   -3.307716   2.835738 H        1 UNL1     0.2102
@<TRIPOS>BOND
     1     1     2    1
     2     1     6    1
     3     2     3    1
     4     3     4    1
     5     3    29    1
     6     3    33    1
     7     4     5    1
     8     5     6    1
     9     5     7    1
    10     5    35    1
    11     7     8    1
    12     8     9   ar
    13     8    13   ar
    14     9    10   ar
    15     9    36    1
    16    10    11   ar
    17    10    26    1
    18    11    12   ar
    19    11    14    1
    20    12    13   ar
    21    12    17    1
    22    13    37    1
    23    14    15    1
    24    14    25    2
    25    15    16    1
    26    15    38    1
    27    15    39    1
    28    16    17    1
    29    16    18    1
    30    16    40    1
    31    18    19   ar
    32    18    23   ar
    33    19    20   ar
    34    19    41    1
    35    20    21   ar
    36    20    42    1
    37    21    22   ar
    38    21    24    1
    39    22    23   ar
    40    22    43    1
    41    23    44    1
    42    24    45    1
    43    26    46    1
    44    27    47    1
    45    28    48    1
    46    29    49    1
    47    30    50    1
    48     1    31    1
    49     1    27    1
    50     2    32    1
    51     2    28    1
    52     4    34    1
    53     4    30    1
