@<TRIPOS>MOLECULE
*****
 50 53 0 0 0
SMALL
GASTEIGER

@<TRIPOS>ATOM
     1 C         -0.577659   1.246446   1.698083 C.3        1 UNL1     0.1889
     2 C         0.081862   -0.022331   1.093783 C.3        1 UNL1     0.1342
     3 C         -0.489771   -1.350903   1.612048 C.3        1 UNL1     0.1174
     4 C         -0.910198   -1.282796   3.082327 C.3        1 UNL1     0.1456
     5 C         -1.735732   -0.023269   3.402404 C.3        1 UNL1     0.2326
     6 O         -0.996938   1.144428   3.05093 O.3        1 UNL1     -0.3076
     7 O         -3.059372   -0.046674   2.837822 O.3        1 UNL1     -0.4605
     8 C         -4.057998   0.518619   3.610297 C.ar        1 UNL1     0.1310
     9 C         -4.889024   -0.176287   4.495623 C.ar        1 UNL1     0.0226
     10 C         -5.862861   0.490505   5.248572 C.ar        1 UNL1     0.1343
     11 C         -6.013456   1.873196   5.152002 C.ar        1 UNL1     0.1007
     12 C         -5.217167   2.57236   4.241026 C.ar        1 UNL1     0.1389
     13 C         -4.239845   1.901305   3.482108 C.ar        1 UNL1     0.0229
     14 C         -6.968807   2.639361   5.985339 C.2        1 UNL1     0.1740
     15 C         -6.841737   4.132695   5.912145 C.3        1 UNL1     0.0520
     16 C         -6.575533   4.523215   4.464876 C.3        1 UNL1     0.1322
     17 O         -5.35446   3.917219   3.986524 O.3        1 UNL1     -0.4828
     18 C         -7.782267   4.331624   3.543025 C.ar        1 UNL1     -0.0067
     19 C         -8.440345   5.463417   3.019391 C.ar        1 UNL1     -0.0516
     20 C         -9.575429   5.324671   2.211742 C.ar        1 UNL1     -0.0198
     21 C         -10.065523   4.062684   1.927093 C.ar        1 UNL1     0.1169
     22 C         -9.419719   2.927958   2.400562 C.ar        1 UNL1     -0.0198
     23 C         -8.273838   3.065822   3.19303 C.ar        1 UNL1     -0.0516
     24 O         -11.195081   3.968104   1.168441 O.3        1 UNL1     -0.5068
     25 O         -7.767905   2.112782   6.75517 O.2        1 UNL1     -0.2917
     26 O         -6.64174   -0.245577   6.093034 O.3        1 UNL1     -0.5058
     27 O         -1.59142   1.802708   0.876105 O.3        1 UNL1     -0.3648
     28 O         1.484839   -0.004761   1.416353 O.3        1 UNL1     -0.3841
     29 O         -1.535443   -1.820276   0.758589 O.3        1 UNL1     -0.3863
     30 O         0.270855   -1.287192   3.913461 O.3        1 UNL1     -0.3829
     31 H         0.19892   2.018518   1.728219 H        1 UNL1     0.0937
     32 H         0.0   0.0   0.0 H        1 UNL1     0.0671
     33 H         0.304539   -2.107257   1.54335 H        1 UNL1     0.0649
     34 H         -1.491513   -2.173066   3.346698 H        1 UNL1     0.0683
     35 H         -1.817568   -0.031612   4.49653 H        1 UNL1     0.1085
     36 H         -4.78426   -1.243521   4.657352 H        1 UNL1     0.0691
     37 H         -3.633464   2.46834   2.779068 H        1 UNL1     0.0691
     38 H         -6.008962   4.426363   6.560043 H        1 UNL1     0.0385
     39 H         -7.756961   4.590383   6.302868 H        1 UNL1     0.0385
     40 H         -6.369449   5.602065   4.453366 H        1 UNL1     0.0789
     41 H         -8.08073   6.465181   3.235717 H        1 UNL1     0.0623
     42 H         -10.081008   6.205504   1.823755 H        1 UNL1     0.0654
     43 H         -9.786242   1.934473   2.171305 H        1 UNL1     0.0654
     44 H         -7.788553   2.157553   3.537112 H        1 UNL1     0.0623
     45 H         -11.932176   4.357885   1.665914 H        1 UNL1     0.2921
     46 H         -7.543261   -0.298353   5.738231 H        1 UNL1     0.2922
     47 H         -1.827489   2.687459   1.18811 H        1 UNL1     0.2126
     48 H         1.696614   -0.881283   1.791311 H        1 UNL1     0.2101
     49 H         -1.815825   -2.706648   1.03702 H        1 UNL1     0.2100
     50 H         1.027725   -1.571649   3.360338 H        1 UNL1     0.2102
@<TRIPOS>BOND
     1     1     2    1
     2     1     6    1
     3     2     3    1
     4     3     4    1
     5     3    29    1
     6     3    33    1
     7     4     5    1
     8     5     6    1
     9     5     7    1
    10     5    35    1
    11     7     8    1
    12     8     9   ar
    13     8    13   ar
    14     9    10   ar
    15     9    36    1
    16    10    11   ar
    17    10    26    1
    18    11    12   ar
    19    11    14    1
    20    12    13   ar
    21    12    17    1
    22    13    37    1
    23    14    15    1
    24    14    25    2
    25    15    16    1
    26    15    38    1
    27    15    39    1
    28    16    17    1
    29    16    18    1
    30    16    40    1
    31    18    19   ar
    32    18    23   ar
    33    19    20   ar
    34    19    41    1
    35    20    21   ar
    36    20    42    1
    37    21    22   ar
    38    21    24    1
    39    22    23   ar
    40    22    43    1
    41    23    44    1
    42    24    45    1
    43    26    46    1
    44    27    47    1
    45    28    48    1
    46    29    49    1
    47    30    50    1
    48     1    31    1
    49     1    27    1
    50     2    32    1
    51     2    28    1
    52     4    34    1
    53     4    30    1
