@<TRIPOS>MOLECULE
*****
 50 53 0 0 0
SMALL
GASTEIGER

@<TRIPOS>ATOM
     1 C         -2.167571   -0.235363   -0.130558 C.3        1 UNL1     0.1889
     2 C         -0.781251   0.049092   -0.768635 C.3        1 UNL1     0.1342
     3 C         -0.677429   1.39435   -1.50346 C.3        1 UNL1     0.1174
     4 C         -1.982034   1.79379   -2.197413 C.3        1 UNL1     0.1456
     5 C         -3.212355   1.614991   -1.28928 C.3        1 UNL1     0.2326
     6 O         -3.292066   0.264483   -0.839119 O.3        1 UNL1     -0.3076
     7 O         -3.277971   2.573459   -0.217667 O.3        1 UNL1     -0.4605
     8 C         -4.54771   2.937189   0.193419 C.ar        1 UNL1     0.1310
     9 C         -5.609076   3.272031   -0.654332 C.ar        1 UNL1     0.0226
     10 C         -6.866415   3.611225   -0.140573 C.ar        1 UNL1     0.1343
     11 C         -7.099697   3.600673   1.233949 C.ar        1 UNL1     0.1007
     12 C         -6.036487   3.307885   2.092227 C.ar        1 UNL1     0.1389
     13 C         -4.771626   2.969433   1.575498 C.ar        1 UNL1     0.0229
     14 C         -8.430269   3.868984   1.827027 C.2        1 UNL1     0.1740
     15 C         -8.552406   3.597091   3.297641 C.3        1 UNL1     0.0520
     16 C         -7.27851   4.072104   3.982848 C.3        1 UNL1     0.1322
     17 O         -6.125695   3.373372   3.463366 O.3        1 UNL1     -0.4828
     18 C         -7.13196   5.595121   4.023663 C.ar        1 UNL1     -0.0067
     19 C         -5.914808   6.184679   3.624693 C.ar        1 UNL1     -0.0516
     20 C         -5.73113   7.5708   3.694649 C.ar        1 UNL1     -0.0198
     21 C         -6.752015   8.37572   4.167642 C.ar        1 UNL1     0.1169
     22 C         -7.973794   7.827876   4.536373 C.ar        1 UNL1     -0.0198
     23 C         -8.16417   6.443608   4.449111 C.ar        1 UNL1     -0.0516
     24 O         -6.523374   9.717398   4.257221 O.3        1 UNL1     -0.5068
     25 O         -9.407283   4.214096   1.167613 O.2        1 UNL1     -0.2917
     26 O         -7.859084   3.92893   -1.021059 O.3        1 UNL1     -0.5058
     27 O         -2.231905   0.088072   1.249311 O.3        1 UNL1     -0.3648
     28 O         -0.499917   -0.986251   -1.728647 O.3        1 UNL1     -0.3841
     29 O         -0.180567   2.411495   -0.631293 O.3        1 UNL1     -0.3863
     30 O         -2.156674   0.983832   -3.380272 O.3        1 UNL1     -0.3829
     31 H         -2.308512   -1.321345   -0.159824 H        1 UNL1     0.0937
     32 H         0.0   0.0   0.0 H        1 UNL1     0.0671
     33 H         0.081912   1.288646   -2.290827 H        1 UNL1     0.0649
     34 H         -1.925416   2.836656   -2.528511 H        1 UNL1     0.0683
     35 H         -4.06365   1.777696   -1.962111 H        1 UNL1     0.1085
     36 H         -5.507265   3.244515   -1.733683 H        1 UNL1     0.0691
     37 H         -3.960088   2.74662   2.264884 H        1 UNL1     0.0691
     38 H         -8.690356   2.518027   3.424597 H        1 UNL1     0.0385
     39 H         -9.443665   4.103599   3.683497 H        1 UNL1     0.0385
     40 H         -7.339599   3.757789   5.03356 H        1 UNL1     0.0789
     41 H         -5.094909   5.57371   3.258452 H        1 UNL1     0.0623
     42 H         -4.783773   8.012285   3.395286 H        1 UNL1     0.0654
     43 H         -8.785187   8.450517   4.893962 H        1 UNL1     0.0654
     44 H         -9.135015   6.050835   4.735528 H        1 UNL1     0.0623
     45 H         -5.78012   9.861944   4.865001 H        1 UNL1     0.2921
     46 H         -8.620409   3.34555   -0.874555 H        1 UNL1     0.2922
     47 H         -1.539044   -0.380227   1.735624 H        1 UNL1     0.2126
     48 H         -0.475902   -1.827707   -1.233564 H        1 UNL1     0.2101
     49 H         0.752224   2.241852   -0.424129 H        1 UNL1     0.2100
     50 H         -1.441492   1.211494   -4.009873 H        1 UNL1     0.2102
@<TRIPOS>BOND
     1     1     2    1
     2     1     6    1
     3     2     3    1
     4     3     4    1
     5     3    29    1
     6     3    33    1
     7     4     5    1
     8     5     6    1
     9     5     7    1
    10     5    35    1
    11     7     8    1
    12     8     9   ar
    13     8    13   ar
    14     9    10   ar
    15     9    36    1
    16    10    11   ar
    17    10    26    1
    18    11    12   ar
    19    11    14    1
    20    12    13   ar
    21    12    17    1
    22    13    37    1
    23    14    15    1
    24    14    25    2
    25    15    16    1
    26    15    38    1
    27    15    39    1
    28    16    17    1
    29    16    18    1
    30    16    40    1
    31    18    19   ar
    32    18    23   ar
    33    19    20   ar
    34    19    41    1
    35    20    21   ar
    36    20    42    1
    37    21    22   ar
    38    21    24    1
    39    22    23   ar
    40    22    43    1
    41    23    44    1
    42    24    45    1
    43    26    46    1
    44    27    47    1
    45    28    48    1
    46    29    49    1
    47    30    50    1
    48     1    31    1
    49     1    27    1
    50     2    32    1
    51     2    28    1
    52     4    34    1
    53     4    30    1
