@<TRIPOS>MOLECULE
*****
 50 53 0 0 0
SMALL
GASTEIGER

@<TRIPOS>ATOM
     1 C         -0.330077   -1.327082   1.703146 C.3        1 UNL1     0.1889
     2 C         -0.461519   -0.975623   0.19678 C.3        1 UNL1     0.1342
     3 C         -1.9026   -0.964816   -0.335795 C.3        1 UNL1     0.1174
     4 C         -2.787688   -2.024254   0.325513 C.3        1 UNL1     0.1456
     5 C         -2.635373   -2.04808   1.857373 C.3        1 UNL1     0.2326
     6 O         -1.270134   -2.264654   2.206779 O.3        1 UNL1     -0.3076
     7 O         -3.211009   -0.900946   2.508562 O.3        1 UNL1     -0.4605
     8 C         -3.719787   -1.115659   3.776857 C.ar        1 UNL1     0.1310
     9 C         -3.728724   -2.342395   4.449419 C.ar        1 UNL1     0.0226
     10 C         -4.252912   -2.454943   5.742656 C.ar        1 UNL1     0.1343
     11 C         -4.759722   -1.337425   6.404576 C.ar        1 UNL1     0.1007
     12 C         -4.793696   -0.115388   5.727631 C.ar        1 UNL1     0.1389
     13 C         -4.268983   -0.003033   4.426292 C.ar        1 UNL1     0.0229
     14 C         -5.248815   -1.382279   7.802049 C.2        1 UNL1     0.1740
     15 C         -5.54754   -0.051871   8.428407 C.3        1 UNL1     0.0520
     16 C         -6.226084   0.828856   7.388284 C.3        1 UNL1     0.1322
     17 O         -5.367744   1.023666   6.242697 O.3        1 UNL1     -0.4828
     18 C         -7.651928   0.39054   7.045395 C.ar        1 UNL1     -0.0067
     19 C         -8.032633   0.268421   5.693225 C.ar        1 UNL1     -0.0516
     20 C         -9.341859   -0.084243   5.344631 C.ar        1 UNL1     -0.0198
     21 C         -10.279475   -0.309701   6.336535 C.ar        1 UNL1     0.1169
     22 C         -9.926234   -0.229912   7.677316 C.ar        1 UNL1     -0.0198
     23 C         -8.612357   0.104696   8.026346 C.ar        1 UNL1     -0.0516
     24 O         -11.554173   -0.614133   5.958559 O.3        1 UNL1     -0.5068
     25 O         -5.336425   -2.418992   8.454763 O.2        1 UNL1     -0.2917
     26 O         -4.232761   -3.680069   6.342858 O.3        1 UNL1     -0.5058
     27 O         -0.225375   -0.188012   2.542399 O.3        1 UNL1     -0.3648
     28 O         0.269512   -1.954113   -0.565359 O.3        1 UNL1     -0.3841
     29 O         -2.461133   0.348392   -0.260567 O.3        1 UNL1     -0.3863
     30 O         -2.439256   -3.325222   -0.195801 O.3        1 UNL1     -0.3829
     31 H         0.631081   -1.839016   1.822219 H        1 UNL1     0.0937
     32 H         0.0   0.0   0.0 H        1 UNL1     0.0671
     33 H         -1.865859   -1.205296   -1.407494 H        1 UNL1     0.0649
     34 H         -3.838077   -1.847049   0.069227 H        1 UNL1     0.0683
     35 H         -3.189185   -2.944145   2.164358 H        1 UNL1     0.1085
     36 H         -3.298686   -3.236224   4.010946 H        1 UNL1     0.0691
     37 H         -4.308334   0.959325   3.920512 H        1 UNL1     0.0691
     38 H         -4.596015   0.382296   8.75341 H        1 UNL1     0.0385
     39 H         -6.173998   -0.204575   9.313851 H        1 UNL1     0.0385
     40 H         -6.32779   1.830024   7.828555 H        1 UNL1     0.0789
     41 H         -7.317613   0.449112   4.895887 H        1 UNL1     0.0623
     42 H         -9.626218   -0.163574   4.298277 H        1 UNL1     0.0654
     43 H         -10.648729   -0.419165   8.462233 H        1 UNL1     0.0654
     44 H         -8.368678   0.147691   9.08352 H        1 UNL1     0.0623
     45 H         -11.904382   0.126003   5.436764 H        1 UNL1     0.2921
     46 H         -3.756182   -3.619539   7.185841 H        1 UNL1     0.2922
     47 H         0.517109   0.366026   2.263795 H        1 UNL1     0.2126
     48 H         1.20238   -1.887719   -0.284146 H        1 UNL1     0.2101
     49 H         -2.022995   0.93058   -0.901571 H        1 UNL1     0.2100
     50 H         -2.672922   -3.341331   -1.147039 H        1 UNL1     0.2102
@<TRIPOS>BOND
     1     1     2    1
     2     1     6    1
     3     2     3    1
     4     3     4    1
     5     3    29    1
     6     3    33    1
     7     4     5    1
     8     5     6    1
     9     5     7    1
    10     5    35    1
    11     7     8    1
    12     8     9   ar
    13     8    13   ar
    14     9    10   ar
    15     9    36    1
    16    10    11   ar
    17    10    26    1
    18    11    12   ar
    19    11    14    1
    20    12    13   ar
    21    12    17    1
    22    13    37    1
    23    14    15    1
    24    14    25    2
    25    15    16    1
    26    15    38    1
    27    15    39    1
    28    16    17    1
    29    16    18    1
    30    16    40    1
    31    18    19   ar
    32    18    23   ar
    33    19    20   ar
    34    19    41    1
    35    20    21   ar
    36    20    42    1
    37    21    22   ar
    38    21    24    1
    39    22    23   ar
    40    22    43    1
    41    23    44    1
    42    24    45    1
    43    26    46    1
    44    27    47    1
    45    28    48    1
    46    29    49    1
    47    30    50    1
    48     1    31    1
    49     1    27    1
    50     2    32    1
    51     2    28    1
    52     4    34    1
    53     4    30    1
