@<TRIPOS>MOLECULE
*****
 50 53 0 0 0
SMALL
GASTEIGER

@<TRIPOS>ATOM
     1 C         -0.345569   -1.336324   1.692815 C.3        1 UNL1     0.1889
     2 C         -0.469086   -0.973659   0.188436 C.3        1 UNL1     0.1342
     3 C         -1.90812   -0.94903   -0.349189 C.3        1 UNL1     0.1174
     4 C         -2.803032   -2.006681   0.301675 C.3        1 UNL1     0.1456
     5 C         -2.656428   -2.042051   1.833869 C.3        1 UNL1     0.2326
     6 O         -1.29402   -2.27065   2.186649 O.3        1 UNL1     -0.3076
     7 O         -3.226322   -0.895355   2.490854 O.3        1 UNL1     -0.4605
     8 C         -3.7484   -1.116848   3.752561 C.ar        1 UNL1     0.1310
     9 C         -3.775514   -2.349698   4.413353 C.ar        1 UNL1     0.0226
     10 C         -4.312201   -2.469114   5.700835 C.ar        1 UNL1     0.1343
     11 C         -4.813666   -1.352824   6.36887 C.ar        1 UNL1     0.1007
     12 C         -4.829468   -0.1242   5.703275 C.ar        1 UNL1     0.1389
     13 C         -4.292185   -0.004906   4.407695 C.ar        1 UNL1     0.0229
     14 C         -5.315507   -1.405887   7.761527 C.2        1 UNL1     0.1740
     15 C         -5.606468   -0.078485   8.397842 C.3        1 UNL1     0.0520
     16 C         -6.266978   0.818756   7.360228 C.3        1 UNL1     0.1322
     17 O         -5.396652   1.01568   6.224085 O.3        1 UNL1     -0.4828
     18 C         -7.694039   0.398045   7.000751 C.ar        1 UNL1     -0.0067
     19 C         -8.069086   0.309628   5.644382 C.ar        1 UNL1     -0.0516
     20 C         -9.378939   -0.02611   5.281713 C.ar        1 UNL1     -0.0198
     21 C         -10.32275   -0.268014   6.263818 C.ar        1 UNL1     0.1169
     22 C         -9.975392   -0.221467   7.607699 C.ar        1 UNL1     -0.0198
     23 C         -8.66101   0.096179   7.970409 C.ar        1 UNL1     -0.0516
     24 O         -11.597616   -0.555088   5.873045 O.3        1 UNL1     -0.5068
     25 O         -5.419216   -2.447754   8.403588 O.2        1 UNL1     -0.2917
     26 O         -4.309575   -3.699967   6.289543 O.3        1 UNL1     -0.5058
     27 O         -0.235883   -0.203785   2.540229 O.3        1 UNL1     -0.3648
     28 O         0.257787   -1.95206   -0.577784 O.3        1 UNL1     -0.3841
     29 O         -2.45766   0.367547   -0.266948 O.3        1 UNL1     -0.3863
     30 O         -2.461887   -3.306486   -0.227304 O.3        1 UNL1     -0.3829
     31 H         0.611523   -1.855839   1.811802 H        1 UNL1     0.0937
     32 H         0.0   0.0   0.0 H        1 UNL1     0.0671
     33 H         -1.869199   -1.182434   -1.422375 H        1 UNL1     0.0649
     34 H         -3.851213   -1.820311   0.042866 H        1 UNL1     0.0683
     35 H         -3.217643   -2.936257   2.132723 H        1 UNL1     0.1085
     36 H         -3.350557   -3.243647   3.970198 H        1 UNL1     0.0691
     37 H         -4.317465   0.962509   3.910741 H        1 UNL1     0.0691
     38 H         -4.653568   0.343016   8.73525 H        1 UNL1     0.0385
     39 H         -6.242215   -0.233194   9.276289 H        1 UNL1     0.0385
     40 H         -6.362578   1.816715   7.80907 H        1 UNL1     0.0789
     41 H         -7.349088   0.5038   4.85473 H        1 UNL1     0.0623
     42 H         -9.658819   -0.079434   4.232506 H        1 UNL1     0.0654
     43 H         -10.702862   -0.423862   8.384702 H        1 UNL1     0.0654
     44 H         -8.422101   0.113202   9.029407 H        1 UNL1     0.0623
     45 H         -11.943762   0.203032   5.374895 H        1 UNL1     0.2921
     46 H         -3.842142   -3.65158   7.138411 H        1 UNL1     0.2922
     47 H         0.508859   0.349121   2.265433 H        1 UNL1     0.2126
     48 H         1.193503   -1.880009   -0.307645 H        1 UNL1     0.2101
     49 H         -2.01902   0.948903   -0.908364 H        1 UNL1     0.2100
     50 H         -2.697455   -3.316345   -1.178158 H        1 UNL1     0.2102
@<TRIPOS>BOND
     1     1     2    1
     2     1     6    1
     3     2     3    1
     4     3     4    1
     5     3    29    1
     6     3    33    1
     7     4     5    1
     8     5     6    1
     9     5     7    1
    10     5    35    1
    11     7     8    1
    12     8     9   ar
    13     8    13   ar
    14     9    10   ar
    15     9    36    1
    16    10    11   ar
    17    10    26    1
    18    11    12   ar
    19    11    14    1
    20    12    13   ar
    21    12    17    1
    22    13    37    1
    23    14    15    1
    24    14    25    2
    25    15    16    1
    26    15    38    1
    27    15    39    1
    28    16    17    1
    29    16    18    1
    30    16    40    1
    31    18    19   ar
    32    18    23   ar
    33    19    20   ar
    34    19    41    1
    35    20    21   ar
    36    20    42    1
    37    21    22   ar
    38    21    24    1
    39    22    23   ar
    40    22    43    1
    41    23    44    1
    42    24    45    1
    43    26    46    1
    44    27    47    1
    45    28    48    1
    46    29    49    1
    47    30    50    1
    48     1    31    1
    49     1    27    1
    50     2    32    1
    51     2    28    1
    52     4    34    1
    53     4    30    1
