@<TRIPOS>MOLECULE
*****
 50 53 0 0 0
SMALL
GASTEIGER

@<TRIPOS>ATOM
     1 C         1.371031   1.350495   1.033075 C.3        1 UNL1     0.1889
     2 C         0.053945   0.532228   0.957802 C.3        1 UNL1     0.1342
     3 C         -1.226849   1.360125   1.143859 C.3        1 UNL1     0.1174
     4 C         -1.049323   2.513542   2.13443 C.3        1 UNL1     0.1456
     5 C         0.24068   3.315112   1.881958 C.3        1 UNL1     0.2326
     6 O         1.370557   2.447118   1.93519 O.3        1 UNL1     -0.3076
     7 O         0.195247   4.112016   0.684377 O.3        1 UNL1     -0.4605
     8 C         -0.985197   4.79599   0.455772 C.ar        1 UNL1     0.1310
     9 C         -1.082375   6.129436   0.043732 C.ar        1 UNL1     0.0226
     10 C         -2.32762   6.729416   -0.178288 C.ar        1 UNL1     0.1343
     11 C         -3.506395   6.002681   -0.016465 C.ar        1 UNL1     0.1007
     12 C         -3.423642   4.682541   0.434273 C.ar        1 UNL1     0.1389
     13 C         -2.171532   4.080292   0.65999 C.ar        1 UNL1     0.0229
     14 C         -4.84472   6.561391   -0.317933 C.2        1 UNL1     0.1740
     15 C         -5.97747   5.577417   -0.303064 C.3        1 UNL1     0.0520
     16 C         -5.771383   4.623114   0.865178 C.3        1 UNL1     0.1322
     17 O         -4.522417   3.909689   0.730349 O.3        1 UNL1     -0.4828
     18 C         -5.987421   5.270552   2.23517 C.ar        1 UNL1     -0.0067
     19 C         -6.954497   6.286983   2.376043 C.ar        1 UNL1     -0.0516
     20 C         -7.144337   6.932704   3.603629 C.ar        1 UNL1     -0.0198
     21 C         -6.370107   6.577014   4.693529 C.ar        1 UNL1     0.1169
     22 C         -5.432941   5.556823   4.594693 C.ar        1 UNL1     -0.0198
     23 C         -5.255714   4.89827   3.37201 C.ar        1 UNL1     -0.0516
     24 O         -6.557036   7.253945   5.862812 O.3        1 UNL1     -0.5068
     25 O         -5.031804   7.731507   -0.640911 O.2        1 UNL1     -0.2917
     26 O         -2.353512   8.033701   -0.577983 O.3        1 UNL1     -0.5058
     27 O         1.881394   1.718551   -0.238479 O.3        1 UNL1     -0.3648
     28 O         0.075382   -0.463263   1.997632 O.3        1 UNL1     -0.3841
     29 O         -1.741258   1.788971   -0.118523 O.3        1 UNL1     -0.3863
     30 O         -1.010857   1.983168   3.477157 O.3        1 UNL1     -0.3829
     31 H         2.132776   0.679924   1.445578 H        1 UNL1     0.0937
     32 H         -0.0   0.0   0.0 H        1 UNL1     0.0671
     33 H         -1.996794   0.697181   1.562677 H        1 UNL1     0.0649
     34 H         -1.91077   3.18841   2.080917 H        1 UNL1     0.0683
     35 H         0.310804   3.983504   2.749261 H        1 UNL1     0.1085
     36 H         -0.201791   6.730922   -0.153514 H        1 UNL1     0.0691
     37 H         -2.13424   3.051507   1.011707 H        1 UNL1     0.0691
     38 H         -5.96316   5.041476   -1.258098 H        1 UNL1     0.0385
     39 H         -6.925065   6.122023   -0.230626 H        1 UNL1     0.0385
     40 H         -6.542166   3.844466   0.786953 H        1 UNL1     0.0789
     41 H         -7.568563   6.590731   1.533243 H        1 UNL1     0.0623
     42 H         -7.884997   7.723152   3.696498 H        1 UNL1     0.0654
     43 H         -4.831767   5.26001   5.445811 H        1 UNL1     0.0654
     44 H         -4.522098   4.098786   3.333556 H        1 UNL1     0.0623
     45 H         -7.429196   7.017529   6.218005 H        1 UNL1     0.2921
     46 H         -2.226436   8.080222   -1.538763 H        1 UNL1     0.2922
     47 H         1.496338   2.559067   -0.523304 H        1 UNL1     0.2126
     48 H         -0.813415   -0.464181   2.402318 H        1 UNL1     0.2101
     49 H         -1.92571   2.74141   -0.093383 H        1 UNL1     0.2100
     50 H         -1.344033   1.0624   3.447291 H        1 UNL1     0.2102
@<TRIPOS>BOND
     1     1     2    1
     2     1     6    1
     3     2     3    1
     4     3     4    1
     5     3    29    1
     6     3    33    1
     7     4     5    1
     8     5     6    1
     9     5     7    1
    10     5    35    1
    11     7     8    1
    12     8     9   ar
    13     8    13   ar
    14     9    10   ar
    15     9    36    1
    16    10    11   ar
    17    10    26    1
    18    11    12   ar
    19    11    14    1
    20    12    13   ar
    21    12    17    1
    22    13    37    1
    23    14    15    1
    24    14    25    2
    25    15    16    1
    26    15    38    1
    27    15    39    1
    28    16    17    1
    29    16    18    1
    30    16    40    1
    31    18    19   ar
    32    18    23   ar
    33    19    20   ar
    34    19    41    1
    35    20    21   ar
    36    20    42    1
    37    21    22   ar
    38    21    24    1
    39    22    23   ar
    40    22    43    1
    41    23    44    1
    42    24    45    1
    43    26    46    1
    44    27    47    1
    45    28    48    1
    46    29    49    1
    47    30    50    1
    48     1    31    1
    49     1    27    1
    50     2    32    1
    51     2    28    1
    52     4    34    1
    53     4    30    1
