@<TRIPOS>MOLECULE
*****
 50 53 0 0 0
SMALL
GASTEIGER

@<TRIPOS>ATOM
     1 C         -0.316292   -1.374915   1.667444 C.3        1 UNL1     0.1889
     2 C         -0.459763   -0.980992   0.172727 C.3        1 UNL1     0.1342
     3 C         -1.905031   -0.955695   -0.347874 C.3        1 UNL1     0.1174
     4 C         -2.784644   -2.033796   0.290168 C.3        1 UNL1     0.1456
     5 C         -2.620159   -2.100931   1.819482 C.3        1 UNL1     0.2326
     6 O         -1.252147   -2.326757   2.151767 O.3        1 UNL1     -0.3076
     7 O         -3.190812   -0.972933   2.507446 O.3        1 UNL1     -0.4605
     8 C         -3.700105   -1.226177   3.768405 C.ar        1 UNL1     0.1310
     9 C         -4.513866   -2.311491   4.11073 C.ar        1 UNL1     0.0226
     10 C         -4.966592   -2.490988   5.423255 C.ar        1 UNL1     0.1343
     11 C         -4.59659   -1.601694   6.43127 C.ar        1 UNL1     0.1007
     12 C         -3.818086   -0.491484   6.09341 C.ar        1 UNL1     0.1389
     13 C         -3.365182   -0.309777   4.773073 C.ar        1 UNL1     0.0229
     14 C         -4.977009   -1.789549   7.850476 C.2        1 UNL1     0.1740
     15 C         -4.310462   -0.86757   8.828851 C.3        1 UNL1     0.0520
     16 C         -4.244466   0.522972   8.212414 C.3        1 UNL1     0.1322
     17 O         -3.485655   0.503493   6.983229 O.3        1 UNL1     -0.4828
     18 C         -5.605392   1.215407   8.106868 C.ar        1 UNL1     -0.0067
     19 C         -5.737649   2.363059   7.298403 C.ar        1 UNL1     -0.0516
     20 C         -6.956002   3.047861   7.217008 C.ar        1 UNL1     -0.0198
     21 C         -8.045062   2.600355   7.94331 C.ar        1 UNL1     0.1169
     22 C         -7.955148   1.453944   8.722088 C.ar        1 UNL1     -0.0198
     23 C         -6.742014   0.758344   8.7892 C.ar        1 UNL1     -0.0516
     24 O         -9.204584   3.314736   7.868684 O.3        1 UNL1     -0.5068
     25 O         -5.723673   -2.684629   8.237531 O.2        1 UNL1     -0.2917
     26 O         -5.758315   -3.569429   5.691071 O.3        1 UNL1     -0.5058
     27 O         -0.205134   -0.260027   2.537763 O.3        1 UNL1     -0.3648
     28 O         0.265368   -1.937209   -0.622596 O.3        1 UNL1     -0.3841
     29 O         -2.463189   0.354628   -0.231053 O.3        1 UNL1     -0.3863
     30 O         -2.440128   -3.319337   -0.270531 O.3        1 UNL1     -0.3829
     31 H         0.645875   -1.889624   1.764339 H        1 UNL1     0.0937
     32 H         0.0   0.0   0.0 H        1 UNL1     0.0671
     33 H         -1.876763   -1.165714   -1.426212 H        1 UNL1     0.0649
     34 H         -3.837068   -1.849832   0.047349 H        1 UNL1     0.0683
     35 H         -3.171351   -3.005555   2.105351 H        1 UNL1     0.1085
     36 H         -4.790372   -3.068197   3.38474 H        1 UNL1     0.0691
     37 H         -2.761232   0.563359   4.535647 H        1 UNL1     0.0691
     38 H         -3.307182   -1.261069   9.024079 H        1 UNL1     0.0385
     39 H         -4.87073   -0.877091   9.770013 H        1 UNL1     0.0385
     40 H         -3.651158   1.150237   8.891416 H        1 UNL1     0.0789
     41 H         -4.895156   2.739725   6.725708 H        1 UNL1     0.0623
     42 H         -7.042077   3.938454   6.599396 H        1 UNL1     0.0654
     43 H         -8.805952   1.086129   9.283118 H        1 UNL1     0.0654
     44 H         -6.710552   -0.13935   9.399119 H        1 UNL1     0.0623
     45 H         -9.039895   4.204407   8.220933 H        1 UNL1     0.2921
     46 H         -5.365206   -4.088729   6.410241 H        1 UNL1     0.2922
     47 H         0.521923   0.312922   2.256734 H        1 UNL1     0.2126
     48 H         1.211194   -1.816816   -0.411287 H        1 UNL1     0.2101
     49 H         -2.036459   0.952828   -0.864972 H        1 UNL1     0.2100
     50 H         -2.707245   -3.318548   -1.213059 H        1 UNL1     0.2102
@<TRIPOS>BOND
     1     1     2    1
     2     1     6    1
     3     2     3    1
     4     3     4    1
     5     3    29    1
     6     3    33    1
     7     4     5    1
     8     5     6    1
     9     5     7    1
    10     5    35    1
    11     7     8    1
    12     8     9   ar
    13     8    13   ar
    14     9    10   ar
    15     9    36    1
    16    10    11   ar
    17    10    26    1
    18    11    12   ar
    19    11    14    1
    20    12    13   ar
    21    12    17    1
    22    13    37    1
    23    14    15    1
    24    14    25    2
    25    15    16    1
    26    15    38    1
    27    15    39    1
    28    16    17    1
    29    16    18    1
    30    16    40    1
    31    18    19   ar
    32    18    23   ar
    33    19    20   ar
    34    19    41    1
    35    20    21   ar
    36    20    42    1
    37    21    22   ar
    38    21    24    1
    39    22    23   ar
    40    22    43    1
    41    23    44    1
    42    24    45    1
    43    26    46    1
    44    27    47    1
    45    28    48    1
    46    29    49    1
    47    30    50    1
    48     1    31    1
    49     1    27    1
    50     2    32    1
    51     2    28    1
    52     4    34    1
    53     4    30    1
