@<TRIPOS>MOLECULE
*****
 50 53 0 0 0
SMALL
GASTEIGER

@<TRIPOS>ATOM
     1 C         -0.330127   -1.327106   1.703118 C.3        1 UNL1     0.1889
     2 C         -0.461546   -0.975615   0.196757 C.3        1 UNL1     0.1342
     3 C         -1.902621   -0.964761   -0.335831 C.3        1 UNL1     0.1174
     4 C         -2.787742   -2.024189   0.325448 C.3        1 UNL1     0.1456
     5 C         -2.635443   -2.048048   1.857309 C.3        1 UNL1     0.2326
     6 O         -1.270213   -2.264664   2.206724 O.3        1 UNL1     -0.3076
     7 O         -3.211056   -0.900911   2.508514 O.3        1 UNL1     -0.4605
     8 C         -3.719852   -1.115636   3.7768 C.ar        1 UNL1     0.1310
     9 C         -4.94387   -0.632125   4.251454 C.ar        1 UNL1     0.0226
     10 C         -5.380751   -0.918941   5.550212 C.ar        1 UNL1     0.1343
     11 C         -4.614365   -1.716883   6.398612 C.ar        1 UNL1     0.1007
     12 C         -3.371378   -2.171419   5.9501 C.ar        1 UNL1     0.1389
     13 C         -2.931116   -1.880689   4.64508 C.ar        1 UNL1     0.0229
     14 C         -5.066032   -2.120546   7.750354 C.2        1 UNL1     0.1740
     15 C         -4.223371   -3.157003   8.433895 C.3        1 UNL1     0.0520
     16 C         -2.758849   -2.846461   8.156958 C.3        1 UNL1     0.1322
     17 O         -2.488498   -2.872787   6.738055 O.3        1 UNL1     -0.4828
     18 C         -2.247137   -1.596578   8.877145 C.ar        1 UNL1     -0.0067
     19 C         -1.526985   -0.625331   8.151697 C.ar        1 UNL1     -0.0516
     20 C         -1.004259   0.506138   8.789268 C.ar        1 UNL1     -0.0198
     21 C         -1.188121   0.673855   10.150111 C.ar        1 UNL1     0.1169
     22 C         -1.921462   -0.248344   10.885366 C.ar        1 UNL1     -0.0198
     23 C         -2.460072   -1.370571   10.244615 C.ar        1 UNL1     -0.0516
     24 O         -0.632171   1.768963   10.743455 O.3        1 UNL1     -0.5068
     25 O         -6.101622   -1.710249   8.267747 O.2        1 UNL1     -0.2917
     26 O         -6.583707   -0.416127   5.952283 O.3        1 UNL1     -0.5058
     27 O         -0.225404   -0.188054   2.542393 O.3        1 UNL1     -0.3648
     28 O         0.269468   -1.95411   -0.565393 O.3        1 UNL1     -0.3841
     29 O         -2.461121   0.348459   -0.260584 O.3        1 UNL1     -0.3863
     30 O         -2.439338   -3.325156   -0.195887 O.3        1 UNL1     -0.3829
     31 H         0.631017   -1.839066   1.822191 H        1 UNL1     0.0937
     32 H         0.0   0.0   0.0 H        1 UNL1     0.0671
     33 H         -1.865876   -1.205222   -1.407535 H        1 UNL1     0.0649
     34 H         -3.838124   -1.846953   0.069155 H        1 UNL1     0.0683
     35 H         -3.189281   -2.944104   2.164271 H        1 UNL1     0.1085
     36 H         -5.610975   -0.05325   3.622171 H        1 UNL1     0.0691
     37 H         -1.95899   -2.245439   4.320394 H        1 UNL1     0.0691
     38 H         -4.504013   -4.133818   8.025728 H        1 UNL1     0.0385
     39 H         -4.45152   -3.155601   9.505215 H        1 UNL1     0.0385
     40 H         -2.16885   -3.678601   8.564345 H        1 UNL1     0.0789
     41 H         -1.361177   -0.738481   7.084291 H        1 UNL1     0.0623
     42 H         -0.440544   1.241976   8.221131 H        1 UNL1     0.0654
     43 H         -2.084309   -0.119127   11.948707 H        1 UNL1     0.0654
     44 H         -3.036559   -2.065244   10.847887 H        1 UNL1     0.0623
     45 H         0.329715   1.731327   10.616669 H        1 UNL1     0.2921
     46 H         -7.15815   -1.143023   6.240465 H        1 UNL1     0.2922
     47 H         0.517096   0.36597   2.263807 H        1 UNL1     0.2126
     48 H         1.202335   -1.887744   -0.28417 H        1 UNL1     0.2101
     49 H         -2.023022   0.930626   -0.901633 H        1 UNL1     0.2100
     50 H         -2.672996   -3.341241   -1.147127 H        1 UNL1     0.2102
@<TRIPOS>BOND
     1     1     2    1
     2     1     6    1
     3     2     3    1
     4     3     4    1
     5     3    29    1
     6     3    33    1
     7     4     5    1
     8     5     6    1
     9     5     7    1
    10     5    35    1
    11     7     8    1
    12     8     9   ar
    13     8    13   ar
    14     9    10   ar
    15     9    36    1
    16    10    11   ar
    17    10    26    1
    18    11    12   ar
    19    11    14    1
    20    12    13   ar
    21    12    17    1
    22    13    37    1
    23    14    15    1
    24    14    25    2
    25    15    16    1
    26    15    38    1
    27    15    39    1
    28    16    17    1
    29    16    18    1
    30    16    40    1
    31    18    19   ar
    32    18    23   ar
    33    19    20   ar
    34    19    41    1
    35    20    21   ar
    36    20    42    1
    37    21    22   ar
    38    21    24    1
    39    22    23   ar
    40    22    43    1
    41    23    44    1
    42    24    45    1
    43    26    46    1
    44    27    47    1
    45    28    48    1
    46    29    49    1
    47    30    50    1
    48     1    31    1
    49     1    27    1
    50     2    32    1
    51     2    28    1
    52     4    34    1
    53     4    30    1
