@<TRIPOS>MOLECULE
*****
 50 53 0 0 0
SMALL
GASTEIGER

@<TRIPOS>ATOM
     1 C         -2.167743   -0.231039   -0.135337 C.3        1 UNL1     0.1889
     2 C         -0.779485   0.05091   -0.770307 C.3        1 UNL1     0.1342
     3 C         -0.67142   1.396226   -1.504414 C.3        1 UNL1     0.1174
     4 C         -1.973729   1.798489   -2.201044 C.3        1 UNL1     0.1456
     5 C         -3.206364   1.621789   -1.295643 C.3        1 UNL1     0.2326
     6 O         -3.289713   0.271279   -0.846149 O.3        1 UNL1     -0.3076
     7 O         -3.272411   2.579999   -0.223826 O.3        1 UNL1     -0.4605
     8 C         -4.542317   2.94644   0.184325 C.ar        1 UNL1     0.1310
     9 C         -5.600869   3.283998   -0.665865 C.ar        1 UNL1     0.0226
     10 C         -6.858679   3.625837   -0.15502 C.ar        1 UNL1     0.1343
     11 C         -7.095313   3.615292   1.218928 C.ar        1 UNL1     0.1007
     12 C         -6.034848   3.319779   2.079666 C.ar        1 UNL1     0.1389
     13 C         -4.769507   2.978668   1.56587 C.ar        1 UNL1     0.0229
     14 C         -8.426708   3.886382   1.808886 C.2        1 UNL1     0.1740
     15 C         -8.553019   3.614211   3.279096 C.3        1 UNL1     0.0520
     16 C         -7.279717   4.086087   3.967567 C.3        1 UNL1     0.1322
     17 O         -6.127228   3.384949   3.450609 O.3        1 UNL1     -0.4828
     18 C         -7.129829   5.608753   4.00932 C.ar        1 UNL1     -0.0067
     19 C         -5.909447   6.195547   3.616184 C.ar        1 UNL1     -0.0516
     20 C         -5.722886   7.581227   3.68723 C.ar        1 UNL1     -0.0198
     21 C         -6.744118   8.388442   4.155541 C.ar        1 UNL1     0.1169
     22 C         -7.968887   7.843378   4.518423 C.ar        1 UNL1     -0.0198
     23 C         -8.162061   6.459568   4.43004 C.ar        1 UNL1     -0.0516
     24 O         -6.51279   9.729572   4.246415 O.3        1 UNL1     -0.5068
     25 O         -9.401341   4.233949   1.147242 O.2        1 UNL1     -0.2917
     26 O         -7.848493   3.946115   -1.037786 O.3        1 UNL1     -0.5058
     27 O         -2.234428   0.092024   1.244507 O.3        1 UNL1     -0.3648
     28 O         -0.498115   -0.984639   -1.730085 O.3        1 UNL1     -0.3841
     29 O         -0.174443   2.412074   -0.630802 O.3        1 UNL1     -0.3863
     30 O         -2.147402   0.989303   -3.384575 O.3        1 UNL1     -0.3829
     31 H         -2.310762   -1.316731   -0.165305 H        1 UNL1     0.0937
     32 H         0.0   0.0   0.0 H        1 UNL1     0.0671
     33 H         0.089415   1.289308   -2.290174 H        1 UNL1     0.0649
     34 H         -1.914337   2.841361   -2.531639 H        1 UNL1     0.0683
     35 H         -4.055877   1.786416   -1.970257 H        1 UNL1     0.1085
     36 H         -5.496507   3.25666   -1.744977 H        1 UNL1     0.0691
     37 H         -3.960146   2.753762   2.257134 H        1 UNL1     0.0691
     38 H         -8.693712   2.535413   3.405304 H        1 UNL1     0.0385
     39 H         -9.444064   4.122584   3.662988 H        1 UNL1     0.0385
     40 H         -7.34406   3.771514   5.018007 H        1 UNL1     0.0789
     41 H         -5.089251   5.582733   3.253709 H        1 UNL1     0.0623
     42 H         -4.773108   8.020559   3.392405 H        1 UNL1     0.0654
     43 H         -8.780509   8.467846   4.872288 H        1 UNL1     0.0654
     44 H         -9.135153   6.069006   4.711817 H        1 UNL1     0.0623
     45 H         -5.775716   9.872637   4.862022 H        1 UNL1     0.2921
     46 H         -8.611551   3.364515   -0.893233 H        1 UNL1     0.2922
     47 H         -1.543547   -0.377817   1.732148 H        1 UNL1     0.2126
     48 H         -0.476832   -1.826319   -1.235259 H        1 UNL1     0.2101
     49 H         0.757608   2.240612   -0.421819 H        1 UNL1     0.2100
     50 H         -1.43041   1.215782   -4.012543 H        1 UNL1     0.2102
@<TRIPOS>BOND
     1     1     2    1
     2     1     6    1
     3     2     3    1
     4     3     4    1
     5     3    29    1
     6     3    33    1
     7     4     5    1
     8     5     6    1
     9     5     7    1
    10     5    35    1
    11     7     8    1
    12     8     9   ar
    13     8    13   ar
    14     9    10   ar
    15     9    36    1
    16    10    11   ar
    17    10    26    1
    18    11    12   ar
    19    11    14    1
    20    12    13   ar
    21    12    17    1
    22    13    37    1
    23    14    15    1
    24    14    25    2
    25    15    16    1
    26    15    38    1
    27    15    39    1
    28    16    17    1
    29    16    18    1
    30    16    40    1
    31    18    19   ar
    32    18    23   ar
    33    19    20   ar
    34    19    41    1
    35    20    21   ar
    36    20    42    1
    37    21    22   ar
    38    21    24    1
    39    22    23   ar
    40    22    43    1
    41    23    44    1
    42    24    45    1
    43    26    46    1
    44    27    47    1
    45    28    48    1
    46    29    49    1
    47    30    50    1
    48     1    31    1
    49     1    27    1
    50     2    32    1
    51     2    28    1
    52     4    34    1
    53     4    30    1
