@<TRIPOS>MOLECULE
*****
 50 53 0 0 0
SMALL
GASTEIGER

@<TRIPOS>ATOM
     1 C         -0.811532   -2.011978   -0.253306 C.3        1 UNL1     0.1889
     2 C         -0.788369   -0.494692   -0.580789 C.3        1 UNL1     0.1342
     3 C         -2.11967   0.233575   -0.34052 C.3        1 UNL1     0.1174
     4 C         -3.338164   -0.639823   -0.649657 C.3        1 UNL1     0.1456
     5 C         -3.22244   -2.050282   -0.043376 C.3        1 UNL1     0.2326
     6 O         -2.034862   -2.684921   -0.512162 O.3        1 UNL1     -0.3076
     7 O         -3.346305   -2.069858   1.390358 O.3        1 UNL1     -0.4605
     8 C         -4.616896   -2.30118   1.885956 C.ar        1 UNL1     0.1310
     9 C         -4.975716   -3.351554   2.73758 C.ar        1 UNL1     0.0226
     10 C         -6.289547   -3.491492   3.200363 C.ar        1 UNL1     0.1343
     11 C         -7.272162   -2.569818   2.841439 C.ar        1 UNL1     0.1007
     12 C         -6.935301   -1.540224   1.958691 C.ar        1 UNL1     0.1389
     13 C         -5.614787   -1.401259   1.491398 C.ar        1 UNL1     0.0229
     14 C         -8.655742   -2.621677   3.36791 C.2        1 UNL1     0.1740
     15 C         -9.514192   -1.431181   3.055932 C.3        1 UNL1     0.0520
     16 C         -9.236511   -0.9993   1.622639 C.3        1 UNL1     0.1322
     17 O         -7.846902   -0.641623   1.454939 O.3        1 UNL1     -0.4828
     18 C         -9.772156   -1.973651   0.570761 C.ar        1 UNL1     -0.0067
     19 C         -9.333766   -1.86089   -0.764647 C.ar        1 UNL1     -0.0516
     20 C         -9.839372   -2.705188   -1.760381 C.ar        1 UNL1     -0.0198
     21 C         -10.787063   -3.659251   -1.435614 C.ar        1 UNL1     0.1169
     22 C         -11.213667   -3.816749   -0.123348 C.ar        1 UNL1     -0.0198
     23 C         -10.694554   -2.984824   0.875891 C.ar        1 UNL1     -0.0516
     24 O         -11.284507   -4.438266   -2.438653 O.3        1 UNL1     -0.5068
     25 O         -9.073535   -3.528733   4.082881 O.2        1 UNL1     -0.2917
     26 O         -6.574342   -4.538441   4.027632 O.3        1 UNL1     -0.5058
     27 O         -0.307252   -2.319707   1.036575 O.3        1 UNL1     -0.3648
     28 O         -0.456976   -0.333463   -1.972511 O.3        1 UNL1     -0.3841
     29 O         -2.160401   0.795533   0.972749 O.3        1 UNL1     -0.3863
     30 O         -3.483462   -0.760608   -2.081435 O.3        1 UNL1     -0.3829
     31 H         -0.105397   -2.49109   -0.940258 H        1 UNL1     0.0937
     32 H         0.0   0.0   0.0 H        1 UNL1     0.0671
     33 H         -2.161242   1.09129   -1.026317 H        1 UNL1     0.0649
     34 H         -4.248139   -0.158497   -0.274596 H        1 UNL1     0.0683
     35 H         -4.068879   -2.595768   -0.479113 H        1 UNL1     0.1085
     36 H         -4.245947   -4.068466   3.097573 H        1 UNL1     0.0691
     37 H         -5.378519   -0.591784   0.804069 H        1 UNL1     0.0691
     38 H         -9.251894   -0.638789   3.765045 H        1 UNL1     0.0385
     39 H         -10.565504   -1.695884   3.212308 H        1 UNL1     0.0385
     40 H         -9.783489   -0.061557   1.455386 H        1 UNL1     0.0789
     41 H         -8.597433   -1.114008   -1.046837 H        1 UNL1     0.0623
     42 H         -9.502215   -2.600474   -2.788666 H        1 UNL1     0.0654
     43 H         -11.944255   -4.570626   0.144647 H        1 UNL1     0.0654
     44 H         -11.042447   -3.142767   1.892193 H        1 UNL1     0.0623
     45 H         -12.109193   -4.037473   -2.757987 H        1 UNL1     0.2921
     46 H         -6.452796   -5.372659   3.5473 H        1 UNL1     0.2922
     47 H         0.429277   -1.732504   1.256977 H        1 UNL1     0.2126
     48 H         0.006212   -1.148574   -2.245977 H        1 UNL1     0.2101
     49 H         -1.813968   1.701875   0.954766 H        1 UNL1     0.2100
     50 H         -4.379545   -1.111383   -2.265029 H        1 UNL1     0.2102
@<TRIPOS>BOND
     1     1     2    1
     2     1     6    1
     3     2     3    1
     4     3     4    1
     5     3    29    1
     6     3    33    1
     7     4     5    1
     8     5     6    1
     9     5     7    1
    10     5    35    1
    11     7     8    1
    12     8     9   ar
    13     8    13   ar
    14     9    10   ar
    15     9    36    1
    16    10    11   ar
    17    10    26    1
    18    11    12   ar
    19    11    14    1
    20    12    13   ar
    21    12    17    1
    22    13    37    1
    23    14    15    1
    24    14    25    2
    25    15    16    1
    26    15    38    1
    27    15    39    1
    28    16    17    1
    29    16    18    1
    30    16    40    1
    31    18    19   ar
    32    18    23   ar
    33    19    20   ar
    34    19    41    1
    35    20    21   ar
    36    20    42    1
    37    21    22   ar
    38    21    24    1
    39    22    23   ar
    40    22    43    1
    41    23    44    1
    42    24    45    1
    43    26    46    1
    44    27    47    1
    45    28    48    1
    46    29    49    1
    47    30    50    1
    48     1    31    1
    49     1    27    1
    50     2    32    1
    51     2    28    1
    52     4    34    1
    53     4    30    1
