@<TRIPOS>MOLECULE
*****
 50 53 0 0 0
SMALL
GASTEIGER

@<TRIPOS>ATOM
     1 C         -0.334964   -1.330074   1.699855 C.3        1 UNL1     0.1889
     2 C         -0.464128   -0.97491   0.19416 C.3        1 UNL1     0.1342
     3 C         -1.904679   -0.959321   -0.339724 C.3        1 UNL1     0.1174
     4 C         -2.793016   -2.018034   0.318381 C.3        1 UNL1     0.1456
     5 C         -2.64219   -2.045676   1.850325 C.3        1 UNL1     0.2326
     6 O         -1.27782   -2.266431   2.200509 O.3        1 UNL1     -0.3076
     7 O         -3.215578   -0.898576   2.503555 O.3        1 UNL1     -0.4605
     8 C         -3.726495   -1.114972   3.770703 C.ar        1 UNL1     0.1310
     9 C         -4.54489   -2.18711   4.142255 C.ar        1 UNL1     0.0226
     10 C         -4.99896   -2.328604   5.458956 C.ar        1 UNL1     0.1343
     11 C         -4.625755   -1.413473   6.442366 C.ar        1 UNL1     0.1007
     12 C         -3.842515   -0.316182   6.074573 C.ar        1 UNL1     0.1389
     13 C         -3.388254   -0.172695   4.750002 C.ar        1 UNL1     0.0229
     14 C         -5.007602   -1.560687   7.865979 C.2        1 UNL1     0.1740
     15 C         -4.337704   -0.614919   8.819032 C.3        1 UNL1     0.0520
     16 C         -4.265681   0.757873   8.164653 C.3        1 UNL1     0.1322
     17 O         -3.506389   0.701497   6.936905 O.3        1 UNL1     -0.4828
     18 C         -5.623686   1.452742   8.039336 C.ar        1 UNL1     -0.0067
     19 C         -5.999841   2.020399   6.804635 C.ar        1 UNL1     -0.0516
     20 C         -7.213867   2.7042   6.668547 C.ar        1 UNL1     -0.0198
     21 C         -8.055225   2.833287   7.759088 C.ar        1 UNL1     0.1169
     22 C         -7.727844   2.256365   8.979261 C.ar        1 UNL1     -0.0198
     23 C         -6.522377   1.556642   9.110762 C.ar        1 UNL1     -0.0516
     24 O         -9.211605   3.538561   7.59855 O.3        1 UNL1     -0.5068
     25 O         -5.758135   -2.44171   8.277054 O.2        1 UNL1     -0.2917
     26 O         -5.795254   -3.396009   5.755851 O.3        1 UNL1     -0.5058
     27 O         -0.228212   -0.193155   2.54176 O.3        1 UNL1     -0.3648
     28 O         0.265178   -1.953505   -0.569496 O.3        1 UNL1     -0.3841
     29 O         -2.460014   0.355101   -0.262064 O.3        1 UNL1     -0.3863
     30 O         -2.447335   -3.318692   -0.205529 O.3        1 UNL1     -0.3829
     31 H         0.624806   -1.844665   1.818668 H        1 UNL1     0.0937
     32 H         0.0   0.0   0.0 H        1 UNL1     0.0671
     33 H         -1.867538   -1.197487   -1.411926 H        1 UNL1     0.0649
     34 H         -3.842722   -1.83764   0.061521 H        1 UNL1     0.0683
     35 H         -3.198515   -2.941045   2.154783 H        1 UNL1     0.1085
     36 H         -4.824183   -2.962338   3.437175 H        1 UNL1     0.0691
     37 H         -2.780593   0.691093   4.48902 H        1 UNL1     0.0691
     38 H         -3.336149   -1.007031   9.025577 H        1 UNL1     0.0385
     39 H         -4.898443   -0.596266   9.759778 H        1 UNL1     0.0385
     40 H         -3.670101   1.401114   8.826503 H        1 UNL1     0.0789
     41 H         -5.352721   1.94071   5.935994 H        1 UNL1     0.0623
     42 H         -7.487203   3.147787   5.71433 H        1 UNL1     0.0654
     43 H         -8.386342   2.338491   9.835734 H        1 UNL1     0.0654
     44 H         -6.303497   1.109618   10.075701 H        1 UNL1     0.0623
     45 H         -8.983791   4.446667   7.341333 H        1 UNL1     0.2921
     46 H         -5.392705   -3.910254   6.473429 H        1 UNL1     0.2922
     47 H         0.515801   0.359746   2.264984 H        1 UNL1     0.2126
     48 H         1.198067   -1.889575   -0.287782 H        1 UNL1     0.2101
     49 H         -2.020011   0.937569   -0.901535 H        1 UNL1     0.2100
     50 H         -2.680154   -3.332085   -1.157017 H        1 UNL1     0.2102
@<TRIPOS>BOND
     1     1     2    1
     2     1     6    1
     3     2     3    1
     4     3     4    1
     5     3    29    1
     6     3    33    1
     7     4     5    1
     8     5     6    1
     9     5     7    1
    10     5    35    1
    11     7     8    1
    12     8     9   ar
    13     8    13   ar
    14     9    10   ar
    15     9    36    1
    16    10    11   ar
    17    10    26    1
    18    11    12   ar
    19    11    14    1
    20    12    13   ar
    21    12    17    1
    22    13    37    1
    23    14    15    1
    24    14    25    2
    25    15    16    1
    26    15    38    1
    27    15    39    1
    28    16    17    1
    29    16    18    1
    30    16    40    1
    31    18    19   ar
    32    18    23   ar
    33    19    20   ar
    34    19    41    1
    35    20    21   ar
    36    20    42    1
    37    21    22   ar
    38    21    24    1
    39    22    23   ar
    40    22    43    1
    41    23    44    1
    42    24    45    1
    43    26    46    1
    44    27    47    1
    45    28    48    1
    46    29    49    1
    47    30    50    1
    48     1    31    1
    49     1    27    1
    50     2    32    1
    51     2    28    1
    52     4    34    1
    53     4    30    1
