@<TRIPOS>MOLECULE
*****
 50 53 0 0 0
SMALL
GASTEIGER

@<TRIPOS>ATOM
     1 C         -0.330276   -1.327176   1.703034 C.3        1 UNL1     0.1889
     2 C         -0.461625   -0.975591   0.196689 C.3        1 UNL1     0.1342
     3 C         -1.902684   -0.964599   -0.33594 C.3        1 UNL1     0.1174
     4 C         -2.787904   -2.023997   0.325254 C.3        1 UNL1     0.1456
     5 C         -2.635652   -2.047953   1.857119 C.3        1 UNL1     0.2326
     6 O         -1.270447   -2.264691   2.206561 O.3        1 UNL1     -0.3076
     7 O         -3.211197   -0.900809   2.508371 O.3        1 UNL1     -0.4605
     8 C         -4.42551   -1.106968   3.13803 C.ar        1 UNL1     0.1310
     9 C         -5.514612   -1.795188   2.592585 C.ar        1 UNL1     0.0226
     10 C         -6.699537   -1.966387   3.31822 C.ar        1 UNL1     0.1343
     11 C         -6.815695   -1.473609   4.617266 C.ar        1 UNL1     0.1007
     12 C         -5.74977   -0.749104   5.157339 C.ar        1 UNL1     0.1389
     13 C         -4.55941   -0.574818   4.42652 C.ar        1 UNL1     0.0229
     14 C         -8.013132   -1.698365   5.459752 C.2        1 UNL1     0.1740
     15 C         -7.879602   -1.294733   6.89878 C.3        1 UNL1     0.0520
     16 C         -7.112261   0.018738   6.961539 C.3        1 UNL1     0.1322
     17 O         -5.796266   -0.128093   6.3839 O.3        1 UNL1     -0.4828
     18 C         -7.903739   1.220292   6.439469 C.ar        1 UNL1     -0.0067
     19 C         -7.300935   2.09786   5.514961 C.ar        1 UNL1     -0.0516
     20 C         -7.979487   3.232238   5.053749 C.ar        1 UNL1     -0.0198
     21 C         -9.255578   3.503469   5.514022 C.ar        1 UNL1     0.1169
     22 C         -9.888439   2.640176   6.398924 C.ar        1 UNL1     -0.0198
     23 C         -9.217163   1.495864   6.846129 C.ar        1 UNL1     -0.0516
     24 O         -9.870662   4.637642   5.071614 O.3        1 UNL1     -0.5068
     25 O         -9.032081   -2.250419   5.052977 O.2        1 UNL1     -0.2917
     26 O         -7.724951   -2.646346   2.728503 O.3        1 UNL1     -0.5058
     27 O         -0.225492   -0.188179   2.542376 O.3        1 UNL1     -0.3648
     28 O         0.269336   -1.954098   -0.565495 O.3        1 UNL1     -0.3841
     29 O         -2.461087   0.34866   -0.260635 O.3        1 UNL1     -0.3863
     30 O         -2.439584   -3.324961   -0.196143 O.3        1 UNL1     -0.3829
     31 H         0.630825   -1.839216   1.822106 H        1 UNL1     0.0937
     32 H         0.0   0.0   0.0 H        1 UNL1     0.0671
     33 H         -1.865926   -1.205003   -1.407656 H        1 UNL1     0.0649
     34 H         -3.838266   -1.846666   0.068942 H        1 UNL1     0.0683
     35 H         -3.189566   -2.943984   2.164015 H        1 UNL1     0.1085
     36 H         -5.467106   -2.25024   1.609329 H        1 UNL1     0.0691
     37 H         -3.744599   -0.005839   4.869058 H        1 UNL1     0.0691
     38 H         -7.338858   -2.093248   7.41791 H        1 UNL1     0.0385
     39 H         -8.87761   -1.212835   7.342686 H        1 UNL1     0.0385
     40 H         -6.92413   0.233362   8.022229 H        1 UNL1     0.0789
     41 H         -6.296652   1.911985   5.145477 H        1 UNL1     0.0623
     42 H         -7.499381   3.907686   4.349988 H        1 UNL1     0.0654
     43 H         -10.893298   2.835025   6.754174 H        1 UNL1     0.0654
     44 H         -9.745795   0.837843   7.529065 H        1 UNL1     0.0623
     45 H         -9.333596   5.401511   5.337663 H        1 UNL1     0.2921
     46 H         -7.978378   -3.397965   3.2873 H        1 UNL1     0.2922
     47 H         0.517058   0.365805   2.263843 H        1 UNL1     0.2126
     48 H         1.202201   -1.887819   -0.284241 H        1 UNL1     0.2101
     49 H         -2.022926   0.930829   -0.901639 H        1 UNL1     0.2100
     50 H         -2.673215   -3.340975   -1.147391 H        1 UNL1     0.2102
@<TRIPOS>BOND
     1     1     2    1
     2     1     6    1
     3     2     3    1
     4     3     4    1
     5     3    29    1
     6     3    33    1
     7     4     5    1
     8     5     6    1
     9     5     7    1
    10     5    35    1
    11     7     8    1
    12     8     9   ar
    13     8    13   ar
    14     9    10   ar
    15     9    36    1
    16    10    11   ar
    17    10    26    1
    18    11    12   ar
    19    11    14    1
    20    12    13   ar
    21    12    17    1
    22    13    37    1
    23    14    15    1
    24    14    25    2
    25    15    16    1
    26    15    38    1
    27    15    39    1
    28    16    17    1
    29    16    18    1
    30    16    40    1
    31    18    19   ar
    32    18    23   ar
    33    19    20   ar
    34    19    41    1
    35    20    21   ar
    36    20    42    1
    37    21    22   ar
    38    21    24    1
    39    22    23   ar
    40    22    43    1
    41    23    44    1
    42    24    45    1
    43    26    46    1
    44    27    47    1
    45    28    48    1
    46    29    49    1
    47    30    50    1
    48     1    31    1
    49     1    27    1
    50     2    32    1
    51     2    28    1
    52     4    34    1
    53     4    30    1
