@<TRIPOS>MOLECULE
*****
 50 53 0 0 0
SMALL
GASTEIGER

@<TRIPOS>ATOM
     1 C         -0.419817   -2.043171   0.648083 C.3        1 UNL1     0.1889
     2 C         -0.400811   -0.926305   -0.429967 C.3        1 UNL1     0.1342
     3 C         -1.765137   -0.631452   -1.071949 C.3        1 UNL1     0.1174
     4 C         -2.633126   -1.883257   -1.222603 C.3        1 UNL1     0.1456
     5 C         -2.661064   -2.739561   0.056587 C.3        1 UNL1     0.2326
     6 O         -1.333506   -3.10696   0.424657 O.3        1 UNL1     -0.3076
     7 O         -3.400628   -2.136582   1.133983 O.3        1 UNL1     -0.4605
     8 C         -2.994376   -2.475252   2.412181 C.ar        1 UNL1     0.1310
     9 C         -3.4346   -1.8639   3.591058 C.ar        1 UNL1     0.0226
     10 C         -2.975814   -2.291107   4.842821 C.ar        1 UNL1     0.1343
     11 C         -2.082956   -3.356796   4.947481 C.ar        1 UNL1     0.1007
     12 C         -1.604688   -3.948376   3.775271 C.ar        1 UNL1     0.1389
     13 C         -2.064122   -3.516903   2.516628 C.ar        1 UNL1     0.0229
     14 C         -1.630473   -3.903567   6.247655 C.2        1 UNL1     0.1740
     15 C         -0.852077   -5.184491   6.177792 C.3        1 UNL1     0.0520
     16 C         0.093843   -5.10912   4.987198 C.3        1 UNL1     0.1322
     17 O         -0.642995   -4.931784   3.757283 O.3        1 UNL1     -0.4828
     18 C         1.250969   -4.126119   5.180825 C.ar        1 UNL1     -0.0067
     19 C         1.239679   -2.898044   4.488064 C.ar        1 UNL1     -0.0516
     20 C         2.304767   -1.997103   4.605773 C.ar        1 UNL1     -0.0198
     21 C         3.387888   -2.315064   5.405509 C.ar        1 UNL1     0.1169
     22 C         3.412672   -3.501881   6.126404 C.ar        1 UNL1     -0.0198
     23 C         2.339278   -4.394773   6.023324 C.ar        1 UNL1     -0.0516
     24 O         4.423833   -1.429869   5.465906 O.3        1 UNL1     -0.5068
     25 O         -1.927273   -3.40583   7.330546 O.2        1 UNL1     -0.2917
     26 O         -3.443225   -1.65209   5.954023 O.3        1 UNL1     -0.5058
     27 O         -0.507567   -1.547255   1.974414 O.3        1 UNL1     -0.3648
     28 O         0.491947   -1.326864   -1.486017 O.3        1 UNL1     -0.3841
     29 O         -2.433338   0.425348   -0.379985 O.3        1 UNL1     -0.3863
     30 O         -2.121259   -2.686849   -2.307923 O.3        1 UNL1     -0.3829
     31 H         0.558942   -2.533562   0.60776 H        1 UNL1     0.0937
     32 H         0.0   0.0   0.0 H        1 UNL1     0.0671
     33 H         -1.582901   -0.247242   -2.085306 H        1 UNL1     0.0649
     34 H         -3.65686   -1.598579   -1.489674 H        1 UNL1     0.0683
     35 H         -3.172666   -3.659769   -0.252216 H        1 UNL1     0.1085
     36 H         -4.170662   -1.067527   3.579906 H        1 UNL1     0.0691
     37 H         -1.675495   -3.993178   1.619062 H        1 UNL1     0.0691
     38 H         -1.570603   -6.002669   6.060183 H        1 UNL1     0.0385
     39 H         -0.317673   -5.331737   7.122519 H        1 UNL1     0.0385
     40 H         0.564997   -6.096091   4.885109 H        1 UNL1     0.0789
     41 H         0.4053   -2.629143   3.846851 H        1 UNL1     0.0623
     42 H         2.289783   -1.05858   4.057173 H        1 UNL1     0.0654
     43 H         4.249027   -3.754065   6.767359 H        1 UNL1     0.0654
     44 H         2.387157   -5.307856   6.608842 H        1 UNL1     0.0623
     45 H         5.255997   -1.929429   5.440222 H        1 UNL1     0.2921
     46 H         -2.899247   -1.8951   6.71982 H        1 UNL1     0.2922
     47 H         0.309121   -1.087801   2.214794 H        1 UNL1     0.2126
     48 H         -0.060816   -1.735961   -2.179432 H        1 UNL1     0.2101
     49 H         -3.372269   0.205969   -0.270092 H        1 UNL1     0.2100
     50 H         -1.442173   -2.160498   -2.778571 H        1 UNL1     0.2102
@<TRIPOS>BOND
     1     1     2    1
     2     1     6    1
     3     2     3    1
     4     3     4    1
     5     3    29    1
     6     3    33    1
     7     4     5    1
     8     5     6    1
     9     5     7    1
    10     5    35    1
    11     7     8    1
    12     8     9   ar
    13     8    13   ar
    14     9    10   ar
    15     9    36    1
    16    10    11   ar
    17    10    26    1
    18    11    12   ar
    19    11    14    1
    20    12    13   ar
    21    12    17    1
    22    13    37    1
    23    14    15    1
    24    14    25    2
    25    15    16    1
    26    15    38    1
    27    15    39    1
    28    16    17    1
    29    16    18    1
    30    16    40    1
    31    18    19   ar
    32    18    23   ar
    33    19    20   ar
    34    19    41    1
    35    20    21   ar
    36    20    42    1
    37    21    22   ar
    38    21    24    1
    39    22    23   ar
    40    22    43    1
    41    23    44    1
    42    24    45    1
    43    26    46    1
    44    27    47    1
    45    28    48    1
    46    29    49    1
    47    30    50    1
    48     1    31    1
    49     1    27    1
    50     2    32    1
    51     2    28    1
    52     4    34    1
    53     4    30    1
