@<TRIPOS>MOLECULE
*****
 50 53 0 0 0
SMALL
GASTEIGER

@<TRIPOS>ATOM
     1 C         -0.351406   -1.339648   1.688982 C.3        1 UNL1     0.1889
     2 C         -0.471135   -0.973292   0.185191 C.3        1 UNL1     0.1342
     3 C         -1.908988   -0.944969   -0.355403 C.3        1 UNL1     0.1174
     4 C         -2.807065   -2.002598   0.291123 C.3        1 UNL1     0.1456
     5 C         -2.663752   -2.041763   1.823537 C.3        1 UNL1     0.2326
     6 O         -1.302481   -2.273498   2.178652 O.3        1 UNL1     -0.3076
     7 O         -3.233082   -0.895622   2.481977 O.3        1 UNL1     -0.4605
     8 C         -3.761585   -1.119934   3.740506 C.ar        1 UNL1     0.1310
     9 C         -4.595536   -2.187246   4.090751 C.ar        1 UNL1     0.0226
     10 C         -5.067022   -2.337783   5.400309 C.ar        1 UNL1     0.1343
     11 C         -4.696304   -1.437015   6.397819 C.ar        1 UNL1     0.1007
     12 C         -3.897289   -0.344222   6.051177 C.ar        1 UNL1     0.1389
     13 C         -3.425495   -0.191611   4.733774 C.ar        1 UNL1     0.0229
     14 C         -5.096936   -1.595156   7.815084 C.2        1 UNL1     0.1740
     15 C         -4.428877   -0.666557   8.78614 C.3        1 UNL1     0.0520
     16 C         -4.33464   0.712202   8.147314 C.3        1 UNL1     0.1322
     17 O         -3.561108   0.660745   6.928269 O.3        1 UNL1     -0.4828
     18 C         -5.683725   1.422601   8.013047 C.ar        1 UNL1     -0.0067
     19 C         -6.032549   2.020063   6.7844 C.ar        1 UNL1     -0.0516
     20 C         -7.237595   2.718244   6.641667 C.ar        1 UNL1     -0.0198
     21 C         -8.097037   2.832108   7.719731 C.ar        1 UNL1     0.1169
     22 C         -7.796803   2.226163   8.932796 C.ar        1 UNL1     -0.0198
     23 C         -6.60038   1.512244   9.07045 C.ar        1 UNL1     -0.0516
     24 O         -9.243815   3.551724   7.554035 O.3        1 UNL1     -0.5068
     25 O         -5.861528   -2.472504   8.207697 O.2        1 UNL1     -0.2917
     26 O         -5.877919   -3.399811   5.676223 O.3        1 UNL1     -0.5058
     27 O         -0.241584   -0.209261   2.539248 O.3        1 UNL1     -0.3648
     28 O         0.255689   -1.951154   -0.581763 O.3        1 UNL1     -0.3841
     29 O         -2.456464   0.372348   -0.271267 O.3        1 UNL1     -0.3863
     30 O         -2.467013   -3.301754   -0.240148 O.3        1 UNL1     -0.3829
     31 H         0.60455   -1.861066   1.808778 H        1 UNL1     0.0937
     32 H         0.0   0.0   0.0 H        1 UNL1     0.0671
     33 H         -1.868201   -1.175955   -1.429042 H        1 UNL1     0.0649
     34 H         -3.85438   -1.813845   0.030541 H        1 UNL1     0.0683
     35 H         -3.227113   -2.935701   2.119135 H        1 UNL1     0.1085
     36 H         -4.874282   -2.952039   3.374153 H        1 UNL1     0.0691
     37 H         -2.805761   0.66843   4.489331 H        1 UNL1     0.0691
     38 H         -3.434036   -1.071335   9.000551 H        1 UNL1     0.0385
     39 H         -5.000784   -0.651891   9.72021 H        1 UNL1     0.0385
     40 H         -3.740494   1.34215   8.823093 H        1 UNL1     0.0789
     41 H         -5.370807   1.952715   5.92579 H        1 UNL1     0.0623
     42 H         -7.489768   3.184697   5.692541 H        1 UNL1     0.0654
     43 H         -8.469683   2.296316   9.779095 H        1 UNL1     0.0654
     44 H         -6.402875   1.04265   10.029261 H        1 UNL1     0.0623
     45 H         -9.002941   4.470068   7.350707 H        1 UNL1     0.2921
     46 H         -5.490182   -3.925001   6.39403 H        1 UNL1     0.2922
     47 H         0.494472   0.351581   2.257224 H        1 UNL1     0.2126
     48 H         1.194342   -1.8658   -0.32607 H        1 UNL1     0.2101
     49 H         -2.015486   0.954439   -0.910409 H        1 UNL1     0.2100
     50 H         -2.700592   -3.309011   -1.191516 H        1 UNL1     0.2102
@<TRIPOS>BOND
     1     1     2    1
     2     1     6    1
     3     2     3    1
     4     3     4    1
     5     3    29    1
     6     3    33    1
     7     4     5    1
     8     5     6    1
     9     5     7    1
    10     5    35    1
    11     7     8    1
    12     8     9   ar
    13     8    13   ar
    14     9    10   ar
    15     9    36    1
    16    10    11   ar
    17    10    26    1
    18    11    12   ar
    19    11    14    1
    20    12    13   ar
    21    12    17    1
    22    13    37    1
    23    14    15    1
    24    14    25    2
    25    15    16    1
    26    15    38    1
    27    15    39    1
    28    16    17    1
    29    16    18    1
    30    16    40    1
    31    18    19   ar
    32    18    23   ar
    33    19    20   ar
    34    19    41    1
    35    20    21   ar
    36    20    42    1
    37    21    22   ar
    38    21    24    1
    39    22    23   ar
    40    22    43    1
    41    23    44    1
    42    24    45    1
    43    26    46    1
    44    27    47    1
    45    28    48    1
    46    29    49    1
    47    30    50    1
    48     1    31    1
    49     1    27    1
    50     2    32    1
    51     2    28    1
    52     4    34    1
    53     4    30    1
