@<TRIPOS>MOLECULE
*****
 50 53 0 0 0
SMALL
GASTEIGER

@<TRIPOS>ATOM
     1 C         -0.336551   -1.33098   1.698832 C.3        1 UNL1     0.1889
     2 C         -0.464713   -0.974804   0.193291 C.3        1 UNL1     0.1342
     3 C         -1.904963   -0.95817   -0.341374 C.3        1 UNL1     0.1174
     4 C         -2.794181   -2.016861   0.315576 C.3        1 UNL1     0.1456
     5 C         -2.64421   -2.045542   1.847584 C.3        1 UNL1     0.2326
     6 O         -1.280141   -2.267189   2.198378 O.3        1 UNL1     -0.3076
     7 O         -3.217393   -0.898573   2.501222 O.3        1 UNL1     -0.4605
     8 C         -3.729113   -1.115516   3.767953 C.ar        1 UNL1     0.1310
     9 C         -4.548238   -2.187486   4.13838 C.ar        1 UNL1     0.0226
     10 C         -5.003101   -2.329586   5.454742 C.ar        1 UNL1     0.1343
     11 C         -4.629986   -1.415258   6.438933 C.ar        1 UNL1     0.1007
     12 C         -3.846006   -0.318121   6.072262 C.ar        1 UNL1     0.1389
     13 C         -3.390947   -0.174023   4.748031 C.ar        1 UNL1     0.0229
     14 C         -5.012688   -1.563182   7.862243 C.2        1 UNL1     0.1740
     15 C         -4.34285   -0.618345   8.81626 C.3        1 UNL1     0.0520
     16 C         -4.269793   0.754824   8.162786 C.3        1 UNL1     0.1322
     17 O         -3.509854   0.698849   6.93542 O.3        1 UNL1     -0.4828
     18 C         -5.627387   1.450439   8.037161 C.ar        1 UNL1     -0.0067
     19 C         -6.002585   2.019059   6.802612 C.ar        1 UNL1     -0.0516
     20 C         -7.2162   2.703542   6.666289 C.ar        1 UNL1     -0.0198
     21 C         -8.058093   2.832356   7.75645 C.ar        1 UNL1     0.1169
     22 C         -7.731666   2.254505   8.976438 C.ar        1 UNL1     -0.0198
     23 C         -6.526615   1.554106   9.108159 C.ar        1 UNL1     -0.0516
     24 O         -9.214039   3.538299   7.595721 O.3        1 UNL1     -0.5068
     25 O         -5.76388   -2.444095   8.272351 O.2        1 UNL1     -0.2917
     26 O         -5.800082   -3.396786   5.750527 O.3        1 UNL1     -0.5058
     27 O         -0.229703   -0.194644   2.541512 O.3        1 UNL1     -0.3648
     28 O         0.264531   -1.953276   -0.570582 O.3        1 UNL1     -0.3841
     29 O         -2.459695   0.356475   -0.263191 O.3        1 UNL1     -0.3863
     30 O         -2.448852   -3.317358   -0.208965 O.3        1 UNL1     -0.3829
     31 H         0.6229   -1.846118   1.817848 H        1 UNL1     0.0937
     32 H         0.0   0.0   0.0 H        1 UNL1     0.0671
     33 H         -1.86735   -1.195679   -1.413706 H        1 UNL1     0.0649
     34 H         -3.843657   -1.835789   0.058253 H        1 UNL1     0.0683
     35 H         -3.201142   -2.94083   2.151172 H        1 UNL1     0.1085
     36 H         -4.827525   -2.962132   3.432658 H        1 UNL1     0.0691
     37 H         -2.782719   0.689631   4.487928 H        1 UNL1     0.0691
     38 H         -3.3416   -1.011079   9.023108 H        1 UNL1     0.0385
     39 H         -4.904095   -0.600008   9.756709 H        1 UNL1     0.0385
     40 H         -3.67426   1.397355   8.825369 H        1 UNL1     0.0789
     41 H         -5.355027   1.9396   5.934277 H        1 UNL1     0.0623
     42 H         -7.488794   3.147865   5.712202 H        1 UNL1     0.0654
     43 H         -8.390594   2.336414   9.832601 H        1 UNL1     0.0654
     44 H         -6.308485   1.106367   10.072936 H        1 UNL1     0.0623
     45 H         -8.985488   4.44794   7.344654 H        1 UNL1     0.2921
     46 H         -5.39887   -3.910904   6.468944 H        1 UNL1     0.2922
     47 H         0.513044   0.359484   2.263794 H        1 UNL1     0.2126
     48 H         1.198253   -1.886072   -0.29241 H        1 UNL1     0.2101
     49 H         -2.019055   0.939129   -0.902052 H        1 UNL1     0.2100
     50 H         -2.681154   -3.330037   -1.160589 H        1 UNL1     0.2102
@<TRIPOS>BOND
     1     1     2    1
     2     1     6    1
     3     2     3    1
     4     3     4    1
     5     3    29    1
     6     3    33    1
     7     4     5    1
     8     5     6    1
     9     5     7    1
    10     5    35    1
    11     7     8    1
    12     8     9   ar
    13     8    13   ar
    14     9    10   ar
    15     9    36    1
    16    10    11   ar
    17    10    26    1
    18    11    12   ar
    19    11    14    1
    20    12    13   ar
    21    12    17    1
    22    13    37    1
    23    14    15    1
    24    14    25    2
    25    15    16    1
    26    15    38    1
    27    15    39    1
    28    16    17    1
    29    16    18    1
    30    16    40    1
    31    18    19   ar
    32    18    23   ar
    33    19    20   ar
    34    19    41    1
    35    20    21   ar
    36    20    42    1
    37    21    22   ar
    38    21    24    1
    39    22    23   ar
    40    22    43    1
    41    23    44    1
    42    24    45    1
    43    26    46    1
    44    27    47    1
    45    28    48    1
    46    29    49    1
    47    30    50    1
    48     1    31    1
    49     1    27    1
    50     2    32    1
    51     2    28    1
    52     4    34    1
    53     4    30    1
