@<TRIPOS>MOLECULE
*****
 50 53 0 0 0
SMALL
GASTEIGER

@<TRIPOS>ATOM
     1 C         -0.3355   -1.329705   1.700038 C.3        1 UNL1     0.1889
     2 C         -0.46427   -0.974826   0.194243 C.3        1 UNL1     0.1342
     3 C         -1.904693   -0.959201   -0.339988 C.3        1 UNL1     0.1174
     4 C         -2.79329   -2.017696   0.318116 C.3        1 UNL1     0.1456
     5 C         -2.642832   -2.045049   1.850101 C.3        1 UNL1     0.2326
     6 O         -1.278566   -2.26587   2.200653 O.3        1 UNL1     -0.3076
     7 O         -3.216262   -0.897764   2.502967 O.3        1 UNL1     -0.4605
     8 C         -3.727503   -1.113859   3.770037 C.ar        1 UNL1     0.1310
     9 C         -4.546091   -2.185843   4.141606 C.ar        1 UNL1     0.0226
     10 C         -5.000489   -2.327031   5.458227 C.ar        1 UNL1     0.1343
     11 C         -4.627427   -1.411742   6.441544 C.ar        1 UNL1     0.1007
     12 C         -3.843992   -0.314601   6.073721 C.ar        1 UNL1     0.1389
     13 C         -3.389402   -0.171421   4.749229 C.ar        1 UNL1     0.0229
     14 C         -5.009628   -1.558637   7.865095 C.2        1 UNL1     0.1740
     15 C         -4.339864   -0.612746   8.81812 C.3        1 UNL1     0.0520
     16 C         -4.26755   0.75991   8.163487 C.3        1 UNL1     0.1322
     17 O         -3.507971   0.703216   6.935931 O.3        1 UNL1     -0.4828
     18 C         -5.625457   1.454887   8.037709 C.ar        1 UNL1     -0.0067
     19 C         -6.001656   2.02152   6.802551 C.ar        1 UNL1     -0.0516
     20 C         -7.215587   2.705397   6.665996 C.ar        1 UNL1     -0.0198
     21 C         -8.056803   2.835578   7.756516 C.ar        1 UNL1     0.1169
     22 C         -7.729381   2.259676   8.97716 C.ar        1 UNL1     -0.0198
     23 C         -6.524013   1.559874   9.109142 C.ar        1 UNL1     -0.0516
     24 O         -9.213088   3.540898   7.595486 O.3        1 UNL1     -0.5068
     25 O         -5.760346   -2.439505   8.276167 O.2        1 UNL1     -0.2917
     26 O         -5.796958   -3.394299   5.755144 O.3        1 UNL1     -0.5058
     27 O         -0.228836   -0.192629   2.541744 O.3        1 UNL1     -0.3648
     28 O         0.265121   -1.953644   -0.569046 O.3        1 UNL1     -0.3841
     29 O         -2.459917   0.355291   -0.26272 O.3        1 UNL1     -0.3863
     30 O         -2.447613   -3.318492   -0.205455 O.3        1 UNL1     -0.3829
     31 H         0.624191   -1.844366   1.819182 H        1 UNL1     0.0937
     32 H         0.0   0.0   0.0 H        1 UNL1     0.0671
     33 H         -1.867319   -1.197583   -1.412134 H        1 UNL1     0.0649
     34 H         -3.842917   -1.837249   0.06097 H        1 UNL1     0.0683
     35 H         -3.199317   -2.940304   2.154604 H        1 UNL1     0.1085
     36 H         -4.825293   -2.961182   3.436613 H        1 UNL1     0.0691
     37 H         -2.781594   0.692256   4.488221 H        1 UNL1     0.0691
     38 H         -3.338396   -1.004915   9.024982 H        1 UNL1     0.0385
     39 H         -4.900825   -0.593851   9.758729 H        1 UNL1     0.0385
     40 H         -3.672064   1.403223   8.825352 H        1 UNL1     0.0789
     41 H         -5.354645   1.940964   5.933909 H        1 UNL1     0.0623
     42 H         -7.488956   3.14819   5.71142 H        1 UNL1     0.0654
     43 H         -8.387772   2.34266   9.833633 H        1 UNL1     0.0654
     44 H         -6.305098   1.113663   10.074449 H        1 UNL1     0.0623
     45 H         -8.985155   4.448741   7.337446 H        1 UNL1     0.2921
     46 H         -6.576926   -3.386356   5.178083 H        1 UNL1     0.2922
     47 H         0.515297   0.360144   2.265035 H        1 UNL1     0.2126
     48 H         1.197949   -1.889749   -0.287122 H        1 UNL1     0.2101
     49 H         -2.019585   0.937632   -0.90208 H        1 UNL1     0.2100
     50 H         -2.680206   -3.33205   -1.156995 H        1 UNL1     0.2102
@<TRIPOS>BOND
     1     1     2    1
     2     1     6    1
     3     2     3    1
     4     3     4    1
     5     3    29    1
     6     3    33    1
     7     4     5    1
     8     5     6    1
     9     5     7    1
    10     5    35    1
    11     7     8    1
    12     8     9   ar
    13     8    13   ar
    14     9    10   ar
    15     9    36    1
    16    10    11   ar
    17    10    26    1
    18    11    12   ar
    19    11    14    1
    20    12    13   ar
    21    12    17    1
    22    13    37    1
    23    14    15    1
    24    14    25    2
    25    15    16    1
    26    15    38    1
    27    15    39    1
    28    16    17    1
    29    16    18    1
    30    16    40    1
    31    18    19   ar
    32    18    23   ar
    33    19    20   ar
    34    19    41    1
    35    20    21   ar
    36    20    42    1
    37    21    22   ar
    38    21    24    1
    39    22    23   ar
    40    22    43    1
    41    23    44    1
    42    24    45    1
    43    26    46    1
    44    27    47    1
    45    28    48    1
    46    29    49    1
    47    30    50    1
    48     1    31    1
    49     1    27    1
    50     2    32    1
    51     2    28    1
    52     4    34    1
    53     4    30    1
