@<TRIPOS>MOLECULE
*****
 50 53 0 0 0
SMALL
GASTEIGER

@<TRIPOS>ATOM
     1 C         0.51785   1.838175   -1.06007 C.3        1 UNL1     0.1889
     2 C         0.419835   0.986191   0.233938 C.3        1 UNL1     0.1342
     3 C         -0.403184   1.626325   1.362359 C.3        1 UNL1     0.1174
     4 C         -0.262887   3.14991   1.408446 C.3        1 UNL1     0.1456
     5 C         -0.405283   3.798031   0.019192 C.3        1 UNL1     0.2326
     6 O         0.55732   3.24562   -0.875853 O.3        1 UNL1     -0.3076
     7 O         -1.747812   3.75667   -0.497746 O.3        1 UNL1     -0.4605
     8 C         -1.882577   3.991491   -1.854295 C.ar        1 UNL1     0.1310
     9 C         -1.187571   4.963956   -2.581329 C.ar        1 UNL1     0.0226
     10 C         -1.381476   5.113208   -3.959744 C.ar        1 UNL1     0.1343
     11 C         -2.258327   4.276976   -4.649445 C.ar        1 UNL1     0.1007
     12 C         -2.988596   3.329306   -3.927355 C.ar        1 UNL1     0.1389
     13 C         -2.795408   3.181189   -2.540931 C.ar        1 UNL1     0.0229
     14 C         -2.438817   4.335236   -6.11852 C.2        1 UNL1     0.1740
     15 C         -3.246178   3.221613   -6.718155 C.3        1 UNL1     0.0520
     16 C         -4.42054   2.92684   -5.795149 C.3        1 UNL1     0.1322
     17 O         -3.956607   2.527706   -4.486514 O.3        1 UNL1     -0.4828
     18 C         -5.485457   4.026167   -5.782623 C.ar        1 UNL1     -0.0067
     19 C         -6.849509   3.669002   -5.77969 C.ar        1 UNL1     -0.0516
     20 C         -7.848705   4.648924   -5.816068 C.ar        1 UNL1     -0.0198
     21 C         -7.497572   5.986212   -5.862896 C.ar        1 UNL1     0.1169
     22 C         -6.163236   6.37027   -5.833125 C.ar        1 UNL1     -0.0198
     23 C         -5.164088   5.39112   -5.778113 C.ar        1 UNL1     -0.0516
     24 O         -8.497563   6.91093   -5.935796 O.3        1 UNL1     -0.5068
     25 O         -1.907105   5.18183   -6.831994 O.2        1 UNL1     -0.2917
     26 O         -0.673544   6.081521   -4.609965 O.3        1 UNL1     -0.5058
     27 O         -0.423284   1.466306   -2.054437 O.3        1 UNL1     -0.3648
     28 O         1.750079   0.773263   0.741697 O.3        1 UNL1     -0.3841
     29 O         -1.765052   1.197503   1.302699 O.3        1 UNL1     -0.3863
     30 O         1.032461   3.490238   1.948761 O.3        1 UNL1     -0.3829
     31 H         1.490209   1.611575   -1.510903 H        1 UNL1     0.0937
     32 H         0.0   0.0   0.0 H        1 UNL1     0.0671
     33 H         -0.018068   1.24268   2.317461 H        1 UNL1     0.0649
     34 H         -1.013638   3.574336   2.084196 H        1 UNL1     0.0683
     35 H         -0.122274   4.844996   0.185474 H        1 UNL1     0.1085
     36 H         -0.450855   5.607656   -2.113333 H        1 UNL1     0.0691
     37 H         -3.37706   2.436689   -2.001585 H        1 UNL1     0.0691
     38 H         -2.589556   2.350137   -6.812507 H        1 UNL1     0.0385
     39 H         -3.57196   3.514701   -7.722019 H        1 UNL1     0.0385
     40 H         -4.927187   2.035967   -6.190337 H        1 UNL1     0.0789
     41 H         -7.150982   2.625916   -5.752547 H        1 UNL1     0.0623
     42 H         -8.8969   4.360459   -5.825421 H        1 UNL1     0.0654
     43 H         -5.877383   7.415139   -5.854244 H        1 UNL1     0.0654
     44 H         -4.132236   5.727364   -5.745473 H        1 UNL1     0.0623
     45 H         -8.836845   7.067055   -5.039565 H        1 UNL1     0.2921
     46 H         0.256589   5.813274   -4.675606 H        1 UNL1     0.2922
     47 H         -0.923288   0.689156   -1.768265 H        1 UNL1     0.2126
     48 H         1.922414   -0.186081   0.680935 H        1 UNL1     0.2101
     49 H         -1.856813   0.330008   1.727935 H        1 UNL1     0.2100
     50 H         1.589709   2.684838   1.926002 H        1 UNL1     0.2102
@<TRIPOS>BOND
     1     1     2    1
     2     1     6    1
     3     2     3    1
     4     3     4    1
     5     3    29    1
     6     3    33    1
     7     4     5    1
     8     5     6    1
     9     5     7    1
    10     5    35    1
    11     7     8    1
    12     8     9   ar
    13     8    13   ar
    14     9    10   ar
    15     9    36    1
    16    10    11   ar
    17    10    26    1
    18    11    12   ar
    19    11    14    1
    20    12    13   ar
    21    12    17    1
    22    13    37    1
    23    14    15    1
    24    14    25    2
    25    15    16    1
    26    15    38    1
    27    15    39    1
    28    16    17    1
    29    16    18    1
    30    16    40    1
    31    18    19   ar
    32    18    23   ar
    33    19    20   ar
    34    19    41    1
    35    20    21   ar
    36    20    42    1
    37    21    22   ar
    38    21    24    1
    39    22    23   ar
    40    22    43    1
    41    23    44    1
    42    24    45    1
    43    26    46    1
    44    27    47    1
    45    28    48    1
    46    29    49    1
    47    30    50    1
    48     1    31    1
    49     1    27    1
    50     2    32    1
    51     2    28    1
    52     4    34    1
    53     4    30    1
