@<TRIPOS>MOLECULE
*****
 50 53 0 0 0
SMALL
GASTEIGER

@<TRIPOS>ATOM
     1 C         2.005706   0.092504   0.859878 C.3        1 UNL1     0.1889
     2 C         0.621463   -0.58845   0.686347 C.3        1 UNL1     0.1342
     3 C         -0.151503   -0.812551   1.995074 C.3        1 UNL1     0.1174
     4 C         0.764823   -1.137677   3.177342 C.3        1 UNL1     0.1456
     5 C         1.975738   -0.190764   3.263392 C.3        1 UNL1     0.2326
     6 O         2.715355   -0.23559   2.045268 O.3        1 UNL1     -0.3076
     7 O         1.629907   1.146852   3.666511 O.3        1 UNL1     -0.4605
     8 C         0.288198   1.474954   3.591061 C.ar        1 UNL1     0.1310
     9 C         -0.744994   0.590792   3.262317 C.ar        1 UNL1     0.0226
     10 C         -2.078374   1.016104   3.229039 C.ar        1 UNL1     0.1343
     11 C         -2.413658   2.331463   3.547247 C.ar        1 UNL1     0.1007
     12 C         -1.386719   3.233781   3.837081 C.ar        1 UNL1     0.1389
     13 C         -0.045847   2.806531   3.867895 C.ar        1 UNL1     0.0229
     14 C         -3.812986   2.813285   3.609555 C.2        1 UNL1     0.1740
     15 C         -4.001713   4.18713   4.182688 C.3        1 UNL1     0.0520
     16 C         -2.886409   5.083531   3.662573 C.3        1 UNL1     0.1322
     17 O         -1.593348   4.575567   4.05885 O.3        1 UNL1     -0.4828
     18 C         -3.007786   5.41721   2.173731 C.ar        1 UNL1     -0.0067
     19 C         -3.426009   4.417324   1.271771 C.ar        1 UNL1     -0.0516
     20 C         -3.502117   4.675503   -0.102097 C.ar        1 UNL1     -0.0198
     21 C         -3.156435   5.92448   -0.586234 C.ar        1 UNL1     0.1169
     22 C         -2.772987   6.939582   0.280585 C.ar        1 UNL1     -0.0198
     23 C         -2.714509   6.687159   1.656419 C.ar        1 UNL1     -0.0516
     24 O         -3.206594   6.127612   -1.934055 O.3        1 UNL1     -0.5068
     25 O         -4.779918   2.124302   3.295181 O.2        1 UNL1     -0.2917
     26 O         -3.038587   0.104401   2.899839 O.3        1 UNL1     -0.5058
     27 O         1.978679   1.493253   0.636363 O.3        1 UNL1     -0.3648
     28 O         0.820799   -1.879012   0.080193 O.3        1 UNL1     -0.3841
     29 O         -1.028735   0.283999   2.259976 O.3        1 UNL1     -0.3863
     30 O         1.244385   -2.493588   3.046134 O.3        1 UNL1     -0.3829
     31 H         2.647556   -0.295624   0.061465 H        1 UNL1     0.0937
     32 H         -0.0   0.0   0.0 H        1 UNL1     0.0671
     33 H         -0.807187   -1.682872   1.852457 H        1 UNL1     0.0649
     34 H         0.19887   -1.087083   4.114112 H        1 UNL1     0.0683
     35 H         2.609167   -0.641091   4.037894 H        1 UNL1     0.1085
     36 H         -0.555456   -0.457592   3.059617 H        1 UNL1     0.0691
     37 H         0.735197   3.528867   4.095259 H        1 UNL1     0.0691
     38 H         -3.961471   4.099255   5.273644 H        1 UNL1     0.0385
     39 H         -4.994362   4.5583   3.905816 H        1 UNL1     0.0385
     40 H         -2.974889   6.0461   4.184255 H        1 UNL1     0.0789
     41 H         -3.693986   3.42611   1.625796 H        1 UNL1     0.0623
     42 H         -3.814631   3.892642   -0.788737 H        1 UNL1     0.0654
     43 H         -2.514587   7.925742   -0.086333 H        1 UNL1     0.0654
     44 H         -2.421022   7.506462   2.305613 H        1 UNL1     0.0623
     45 H         -3.997595   6.653305   -2.135754 H        1 UNL1     0.2921
     46 H         -2.803877   -0.324302   2.061664 H        1 UNL1     0.2922
     47 H         2.871181   1.821132   0.458054 H        1 UNL1     0.2126
     48 H         0.181857   -1.944168   -0.655497 H        1 UNL1     0.2101
     49 H         -0.682456   1.090922   1.846745 H        1 UNL1     0.2100
     50 H         0.600701   -2.989425   2.498841 H        1 UNL1     0.2102
@<TRIPOS>BOND
     1     1     2    1
     2     1     6    1
     3     2     3    1
     4     3     4    1
     5     3    29    1
     6     3    33    1
     7     4     5    1
     8     5     6    1
     9     5     7    1
    10     5    35    1
    11     7     8    1
    12     8     9   ar
    13     8    13   ar
    14     9    10   ar
    15     9    36    1
    16    10    11   ar
    17    10    26    1
    18    11    12   ar
    19    11    14    1
    20    12    13   ar
    21    12    17    1
    22    13    37    1
    23    14    15    1
    24    14    25    2
    25    15    16    1
    26    15    38    1
    27    15    39    1
    28    16    17    1
    29    16    18    1
    30    16    40    1
    31    18    19   ar
    32    18    23   ar
    33    19    20   ar
    34    19    41    1
    35    20    21   ar
    36    20    42    1
    37    21    22   ar
    38    21    24    1
    39    22    23   ar
    40    22    43    1
    41    23    44    1
    42    24    45    1
    43    26    46    1
    44    27    47    1
    45    28    48    1
    46    29    49    1
    47    30    50    1
    48     1    31    1
    49     1    27    1
    50     2    32    1
    51     2    28    1
    52     4    34    1
    53     4    30    1
