@<TRIPOS>MOLECULE
*****
 50 53 0 0 0
SMALL
GASTEIGER

@<TRIPOS>ATOM
     1 C         0.781133   -1.001458   1.776997 C.3        1 UNL1     0.1889
     2 C         0.539725   -0.923035   0.24549 C.3        1 UNL1     0.1342
     3 C         -0.220079   -2.12022   -0.346041 C.3        1 UNL1     0.1174
     4 C         0.117892   -3.440623   0.350686 C.3        1 UNL1     0.1456
     5 C         0.096658   -3.320456   1.885441 C.3        1 UNL1     0.2326
     6 O         1.000474   -2.300971   2.305723 O.3        1 UNL1     -0.3076
     7 O         -1.226314   -3.163397   2.429865 O.3        1 UNL1     -0.4605
     8 C         -1.295221   -2.864405   3.778711 C.ar        1 UNL1     0.1310
     9 C         -0.662878   -1.783488   4.402457 C.ar        1 UNL1     0.0226
     10 C         -0.807891   -1.554488   5.775932 C.ar        1 UNL1     0.1343
     11 C         -1.608845   -2.387967   6.555435 C.ar        1 UNL1     0.1007
     12 C         -2.212262   -3.49435   5.951623 C.ar        1 UNL1     0.1389
     13 C         -2.064159   -3.725911   4.571088 C.ar        1 UNL1     0.0229
     14 C         -1.86443   -2.144077   7.993958 C.2        1 UNL1     0.1740
     15 C         -2.921846   -3.004758   8.620574 C.3        1 UNL1     0.0520
     16 C         -2.774   -4.420196   8.079617 C.3        1 UNL1     0.1322
     17 O         -2.933019   -4.439647   6.643858 O.3        1 UNL1     -0.4828
     18 C         -1.527738   -5.14775   8.589738 C.ar        1 UNL1     -0.0067
     19 C         -1.632005   -6.490491   9.007334 C.ar        1 UNL1     -0.0516
     20 C         -0.522384   -7.170477   9.523398 C.ar        1 UNL1     -0.0198
     21 C         0.692516   -6.518019   9.633604 C.ar        1 UNL1     0.1169
     22 C         0.834734   -5.206407   9.199684 C.ar        1 UNL1     -0.0198
     23 C         -0.270212   -4.532008   8.666452 C.ar        1 UNL1     -0.0516
     24 O         1.741491   -7.200492   10.176082 O.3        1 UNL1     -0.5068
     25 O         -1.319477   -1.249559   8.635323 O.2        1 UNL1     -0.2917
     26 O         -0.163873   -0.483343   6.323176 O.3        1 UNL1     -0.5058
     27 O         -0.175504   -0.281107   2.537737 O.3        1 UNL1     -0.3648
     28 O         1.817357   -0.857846   -0.414899 O.3        1 UNL1     -0.3841
     29 O         -1.624545   -1.859524   -0.386615 O.3        1 UNL1     -0.3863
     30 O         1.432784   -3.871508   -0.062939 O.3        1 UNL1     -0.3829
     31 H         1.726287   -0.482932   1.971658 H        1 UNL1     0.0937
     32 H         0.0   0.0   0.0 H        1 UNL1     0.0671
     33 H         0.087294   -2.227001   -1.395727 H        1 UNL1     0.0649
     34 H         -0.587292   -4.219096   0.039085 H        1 UNL1     0.0683
     35 H         0.51046   -4.275969   2.231334 H        1 UNL1     0.1085
     36 H         -0.072275   -1.067364   3.841676 H        1 UNL1     0.0691
     37 H         -2.543308   -4.594932   4.125319 H        1 UNL1     0.0691
     38 H         -3.89551   -2.579838   8.354215 H        1 UNL1     0.0385
     39 H         -2.817831   -2.964985   9.710243 H        1 UNL1     0.0385
     40 H         -3.625401   -5.00194   8.458047 H        1 UNL1     0.0789
     41 H         -2.576777   -7.021969   8.939597 H        1 UNL1     0.0623
     42 H         -0.618419   -8.202021   9.853101 H        1 UNL1     0.0654
     43 H         1.785223   -4.690765   9.267468 H        1 UNL1     0.0654
     44 H         -0.120459   -3.511459   8.327486 H        1 UNL1     0.0623
     45 H         1.755619   -8.093832   9.796002 H        1 UNL1     0.2921
     46 H         0.172636   -0.722213   7.201307 H        1 UNL1     0.2922
     47 H         -0.41431   -0.778206   3.332548 H        1 UNL1     0.2126
     48 H         2.278991   -1.694698   -0.21414 H        1 UNL1     0.2101
     49 H         -2.058192   -2.267468   0.379757 H        1 UNL1     0.2100
     50 H         1.388044   -4.106698   -1.012885 H        1 UNL1     0.2102
@<TRIPOS>BOND
     1     1     2    1
     2     1     6    1
     3     2     3    1
     4     3     4    1
     5     3    29    1
     6     3    33    1
     7     4     5    1
     8     5     6    1
     9     5     7    1
    10     5    35    1
    11     7     8    1
    12     8     9   ar
    13     8    13   ar
    14     9    10   ar
    15     9    36    1
    16    10    11   ar
    17    10    26    1
    18    11    12   ar
    19    11    14    1
    20    12    13   ar
    21    12    17    1
    22    13    37    1
    23    14    15    1
    24    14    25    2
    25    15    16    1
    26    15    38    1
    27    15    39    1
    28    16    17    1
    29    16    18    1
    30    16    40    1
    31    18    19   ar
    32    18    23   ar
    33    19    20   ar
    34    19    41    1
    35    20    21   ar
    36    20    42    1
    37    21    22   ar
    38    21    24    1
    39    22    23   ar
    40    22    43    1
    41    23    44    1
    42    24    45    1
    43    26    46    1
    44    27    47    1
    45    28    48    1
    46    29    49    1
    47    30    50    1
    48     1    31    1
    49     1    27    1
    50     2    32    1
    51     2    28    1
    52     4    34    1
    53     4    30    1
