@<TRIPOS>MOLECULE
*****
 50 53 0 0 0
SMALL
GASTEIGER

@<TRIPOS>ATOM
     1 C         -0.35049   -1.338345   1.690205 C.3        1 UNL1     0.1889
     2 C         -0.471625   -0.972839   0.18632 C.3        1 UNL1     0.1342
     3 C         -1.910056   -0.943823   -0.352697 C.3        1 UNL1     0.1174
     4 C         -2.808171   -2.000408   0.295482 C.3        1 UNL1     0.1456
     5 C         -2.663187   -2.038722   1.82776 C.3        1 UNL1     0.2326
     6 O         -1.301688   -2.271209   2.181511 O.3        1 UNL1     -0.3076
     7 O         -3.230967   -0.891763   2.486117 O.3        1 UNL1     -0.4605
     8 C         -3.754841   -1.114127   3.746926 C.ar        1 UNL1     0.1310
     9 C         -4.897223   -1.871347   4.027783 C.ar        1 UNL1     0.0226
     10 C         -5.33977   -2.05286   5.343499 C.ar        1 UNL1     0.1343
     11 C         -4.636366   -1.500756   6.413193 C.ar        1 UNL1     0.1007
     12 C         -3.517516   -0.708511   6.142442 C.ar        1 UNL1     0.1389
     13 C         -3.074259   -0.523961   4.819228 C.ar        1 UNL1     0.0229
     14 C         -5.011129   -1.730372   7.827754 C.2        1 UNL1     0.1740
     15 C         -4.020958   -1.250346   8.847894 C.3        1 UNL1     0.0520
     16 C         -3.47161   0.093981   8.390774 C.3        1 UNL1     0.1322
     17 O         -2.814372   -0.0293   7.110184 O.3        1 UNL1     -0.4828
     18 C         -4.487593   1.235645   8.475071 C.ar        1 UNL1     -0.0067
     19 C         -4.651163   2.09992   7.373034 C.ar        1 UNL1     -0.0516
     20 C         -5.537123   3.182183   7.434225 C.ar        1 UNL1     -0.0198
     21 C         -6.258197   3.414676   8.591734 C.ar        1 UNL1     0.1169
     22 C         -6.143659   2.56163   9.681703 C.ar        1 UNL1     -0.0198
     23 C         -5.27151   1.468535   9.614207 C.ar        1 UNL1     -0.0516
     24 O         -7.083021   4.500386   8.627776 O.3        1 UNL1     -0.5068
     25 O         -6.020005   -2.341993   8.169185 O.2        1 UNL1     -0.2917
     26 O         -6.46165   -2.801525   5.549584 O.3        1 UNL1     -0.5058
     27 O         -0.238918   -0.207508   2.539644 O.3        1 UNL1     -0.3648
     28 O         0.253649   -1.951698   -0.580831 O.3        1 UNL1     -0.3841
     29 O         -2.456497   0.373937   -0.268775 O.3        1 UNL1     -0.3863
     30 O         -2.469638   -3.300137   -0.235355 O.3        1 UNL1     -0.3829
     31 H         0.605225   -1.860372   1.809266 H        1 UNL1     0.0937
     32 H         0.0   0.0   0.0 H        1 UNL1     0.0671
     33 H         -1.870625   -1.175507   -1.426237 H        1 UNL1     0.0649
     34 H         -3.85564   -1.811067   0.035944 H        1 UNL1     0.0683
     35 H         -3.226859   -2.932072   2.12454 H        1 UNL1     0.1085
     36 H         -5.455669   -2.372737   3.244925 H        1 UNL1     0.0691
     37 H         -2.201107   0.098252   4.634974 H        1 UNL1     0.0691
     38 H         -3.225226   -1.999871   8.915358 H        1 UNL1     0.0385
     39 H         -4.513844   -1.185956   9.823955 H        1 UNL1     0.0385
     40 H         -2.667454   0.368636   9.086775 H        1 UNL1     0.0789
     41 H         -4.08991   1.944176   6.456306 H        1 UNL1     0.0623
     42 H         -5.645578   3.848457   6.581976 H        1 UNL1     0.0654
     43 H         -6.714817   2.725708   10.587665 H        1 UNL1     0.0654
     44 H         -5.214892   0.816594   10.480586 H        1 UNL1     0.0623
     45 H         -6.544614   5.298823   8.503948 H        1 UNL1     0.2921
     46 H         -6.25624   -3.532712   6.153393 H        1 UNL1     0.2922
     47 H         0.504058   0.346928   2.263151 H        1 UNL1     0.2126
     48 H         1.189266   -1.882365   -0.309637 H        1 UNL1     0.2101
     49 H         -2.015812   0.955314   -0.908769 H        1 UNL1     0.2100
     50 H         -2.704277   -3.307819   -1.186459 H        1 UNL1     0.2102
@<TRIPOS>BOND
     1     1     2    1
     2     1     6    1
     3     2     3    1
     4     3     4    1
     5     3    29    1
     6     3    33    1
     7     4     5    1
     8     5     6    1
     9     5     7    1
    10     5    35    1
    11     7     8    1
    12     8     9   ar
    13     8    13   ar
    14     9    10   ar
    15     9    36    1
    16    10    11   ar
    17    10    26    1
    18    11    12   ar
    19    11    14    1
    20    12    13   ar
    21    12    17    1
    22    13    37    1
    23    14    15    1
    24    14    25    2
    25    15    16    1
    26    15    38    1
    27    15    39    1
    28    16    17    1
    29    16    18    1
    30    16    40    1
    31    18    19   ar
    32    18    23   ar
    33    19    20   ar
    34    19    41    1
    35    20    21   ar
    36    20    42    1
    37    21    22   ar
    38    21    24    1
    39    22    23   ar
    40    22    43    1
    41    23    44    1
    42    24    45    1
    43    26    46    1
    44    27    47    1
    45    28    48    1
    46    29    49    1
    47    30    50    1
    48     1    31    1
    49     1    27    1
    50     2    32    1
    51     2    28    1
    52     4    34    1
    53     4    30    1
