@<TRIPOS>MOLECULE
*****
 50 53 0 0 0
SMALL
GASTEIGER

@<TRIPOS>ATOM
     1 C         0.194698   -1.8663   1.117954 C.3        1 UNL1     0.1889
     2 C         0.395957   -1.010313   -0.16139 C.3        1 UNL1     0.1342
     3 C         -0.235244   -1.598768   -1.43252 C.3        1 UNL1     0.1174
     4 C         -0.181491   -3.128124   -1.46856 C.3        1 UNL1     0.1456
     5 C         -0.624042   -3.765758   -0.138923 C.3        1 UNL1     0.2326
     6 O         0.182911   -3.273556   0.928519 O.3        1 UNL1     -0.3076
     7 O         -2.03525   -3.641395   0.114746 O.3        1 UNL1     -0.4605
     8 C         -2.391823   -2.815363   1.165485 C.ar        1 UNL1     0.1310
     9 C         -3.536143   -2.011844   1.212295 C.ar        1 UNL1     0.0226
     10 C         -3.819543   -1.220544   2.331861 C.ar        1 UNL1     0.1343
     11 C         -2.976989   -1.231783   3.442634 C.ar        1 UNL1     0.1007
     12 C         -1.809918   -1.998648   3.391178 C.ar        1 UNL1     0.1389
     13 C         -1.52382   -2.792174   2.264282 C.ar        1 UNL1     0.0229
     14 C         -3.271685   -0.480187   4.684573 C.2        1 UNL1     0.1740
     15 C         -2.379685   -0.781465   5.852954 C.3        1 UNL1     0.0520
     16 C         -0.951977   -0.926256   5.344383 C.3        1 UNL1     0.1322
     17 O         -0.856582   -2.000231   4.38285 O.3        1 UNL1     -0.4828
     18 C         -0.324168   0.392522   4.886775 C.ar        1 UNL1     -0.0067
     19 C         0.14707   1.306674   5.851385 C.ar        1 UNL1     -0.0516
     20 C         0.683333   2.541974   5.468738 C.ar        1 UNL1     -0.0198
     21 C         0.746982   2.877243   4.128077 C.ar        1 UNL1     0.1169
     22 C         0.321764   1.984293   3.153054 C.ar        1 UNL1     -0.0198
     23 C         -0.197529   0.741354   3.53449 C.ar        1 UNL1     -0.0516
     24 O         1.240566   4.104471   3.795382 O.3        1 UNL1     -0.5068
     25 O         -4.225762   0.284307   4.801928 O.2        1 UNL1     -0.2917
     26 O         -4.951266   -0.45866   2.313922 O.3        1 UNL1     -0.5058
     27 O         -0.893717   -1.436692   1.920187 O.3        1 UNL1     -0.3648
     28 O         1.808818   -0.880111   -0.405475 O.3        1 UNL1     -0.3841
     29 O         -1.555095   -1.086639   -1.627065 O.3        1 UNL1     -0.3863
     30 O         1.169772   -3.547977   -1.757526 O.3        1 UNL1     -0.3829
     31 H         1.075745   -1.700036   1.747392 H        1 UNL1     0.0937
     32 H         0.0   0.0   0.0 H        1 UNL1     0.0671
     33 H         0.346709   -1.239952   -2.292928 H        1 UNL1     0.0649
     34 H         -0.814693   -3.505596   -2.279096 H        1 UNL1     0.0683
     35 H         -0.378698   -4.828257   -0.260501 H        1 UNL1     0.1085
     36 H         -4.25932   -2.00185   0.404188 H        1 UNL1     0.0691
     37 H         -0.608143   -3.379354   2.248529 H        1 UNL1     0.0691
     38 H         -2.733213   -1.712842   6.308016 H        1 UNL1     0.0385
     39 H         -2.476034   0.019388   6.593987 H        1 UNL1     0.0385
     40 H         -0.338854   -1.261302   6.191936 H        1 UNL1     0.0789
     41 H         0.09975   1.070912   6.910549 H        1 UNL1     0.0623
     42 H         1.032433   3.243249   6.22263 H        1 UNL1     0.0654
     43 H         0.380953   2.230543   2.099599 H        1 UNL1     0.0654
     44 H         -0.510537   0.064047   2.74574 H        1 UNL1     0.0623
     45 H         0.816191   4.392523   2.970975 H        1 UNL1     0.2921
     46 H         -5.4516   -0.603233   3.132565 H        1 UNL1     0.2922
     47 H         -0.64514   -1.446958   2.855047 H        1 UNL1     0.2126
     48 H         2.031254   -1.519952   -1.108936 H        1 UNL1     0.2101
     49 H         -2.05483   -1.138282   -0.796768 H        1 UNL1     0.2100
     50 H         1.771408   -3.063409   -1.15508 H        1 UNL1     0.2102
@<TRIPOS>BOND
     1     1     2    1
     2     1     6    1
     3     2     3    1
     4     3     4    1
     5     3    29    1
     6     3    33    1
     7     4     5    1
     8     5     6    1
     9     5     7    1
    10     5    35    1
    11     7     8    1
    12     8     9   ar
    13     8    13   ar
    14     9    10   ar
    15     9    36    1
    16    10    11   ar
    17    10    26    1
    18    11    12   ar
    19    11    14    1
    20    12    13   ar
    21    12    17    1
    22    13    37    1
    23    14    15    1
    24    14    25    2
    25    15    16    1
    26    15    38    1
    27    15    39    1
    28    16    17    1
    29    16    18    1
    30    16    40    1
    31    18    19   ar
    32    18    23   ar
    33    19    20   ar
    34    19    41    1
    35    20    21   ar
    36    20    42    1
    37    21    22   ar
    38    21    24    1
    39    22    23   ar
    40    22    43    1
    41    23    44    1
    42    24    45    1
    43    26    46    1
    44    27    47    1
    45    28    48    1
    46    29    49    1
    47    30    50    1
    48     1    31    1
    49     1    27    1
    50     2    32    1
    51     2    28    1
    52     4    34    1
    53     4    30    1
