@<TRIPOS>MOLECULE
*****
 50 53 0 0 0
SMALL
GASTEIGER

@<TRIPOS>ATOM
     1 C         -0.330976   -1.327505   1.702642 C.3        1 UNL1     0.1889
     2 C         -0.461997   -0.975479   0.196371 C.3        1 UNL1     0.1342
     3 C         -1.90298   -0.963837   -0.33645 C.3        1 UNL1     0.1174
     4 C         -2.788665   -2.023094   0.324347 C.3        1 UNL1     0.1456
     5 C         -2.636628   -2.047506   1.856226 C.3        1 UNL1     0.2326
     6 O         -1.271547   -2.264819   2.205796 O.3        1 UNL1     -0.3076
     7 O         -3.211854   -0.900329   2.507702 O.3        1 UNL1     -0.4605
     8 C         -3.499655   -1.047904   3.852663 C.ar        1 UNL1     0.1310
     9 C         -4.14383   -2.148783   4.42747 C.ar        1 UNL1     0.0226
     10 C         -4.375406   -2.212903   5.80666 C.ar        1 UNL1     0.1343
     11 C         -3.94672   -1.187465   6.648411 C.ar        1 UNL1     0.1007
     12 C         -3.338981   -0.064254   6.081106 C.ar        1 UNL1     0.1389
     13 C         -3.108614   0.001176   4.693994 C.ar        1 UNL1     0.0229
     14 C         -4.090368   -1.241871   8.121693 C.2        1 UNL1     0.1740
     15 C         -3.377499   -0.163657   8.883809 C.3        1 UNL1     0.0520
     16 C         -3.53974   1.148137   8.128276 C.3        1 UNL1     0.1322
     17 O         -2.975209   1.049313   6.80215 O.3        1 UNL1     -0.4828
     18 C         -4.961813   1.71252   8.171906 C.ar        1 UNL1     -0.0067
     19 C         -5.576557   2.134228   6.975049 C.ar        1 UNL1     -0.0516
     20 C         -6.857632   2.698761   6.9857 C.ar        1 UNL1     -0.0198
     21 C         -7.529886   2.853421   8.184859 C.ar        1 UNL1     0.1169
     22 C         -6.964437   2.417126   9.375973 C.ar        1 UNL1     -0.0198
     23 C         -5.690939   1.835662   9.363378 C.ar        1 UNL1     -0.0516
     24 O         -8.760117   3.441929   8.160551 O.3        1 UNL1     -0.5068
     25 O         -4.680283   -2.143883   8.71064 O.2        1 UNL1     -0.2917
     26 O         -5.009718   -3.31372   6.30409 O.3        1 UNL1     -0.5058
     27 O         -0.225902   -0.188766   2.542296 O.3        1 UNL1     -0.3648
     28 O         0.268721   -1.954045   -0.56597 O.3        1 UNL1     -0.3841
     29 O         -2.460928   0.3496   -0.260876 O.3        1 UNL1     -0.3863
     30 O         -2.440735   -3.324045   -0.197344 O.3        1 UNL1     -0.3829
     31 H         0.629928   -1.839917   1.821709 H        1 UNL1     0.0937
     32 H         0.0   0.0   0.0 H        1 UNL1     0.0671
     33 H         -1.866163   -1.203973   -1.408223 H        1 UNL1     0.0649
     34 H         -3.838929   -1.845325   0.067939 H        1 UNL1     0.0683
     35 H         -3.190901   -2.943422   2.162812 H        1 UNL1     0.1085
     36 H         -4.451166   -3.003208   3.834492 H        1 UNL1     0.0691
     37 H         -2.634597   0.887102   4.276938 H        1 UNL1     0.0691
     38 H         -2.322911   -0.450487   8.95522 H        1 UNL1     0.0385
     39 H         -3.786974   -0.110522   9.898347 H        1 UNL1     0.0385
     40 H         -2.915158   1.894443   8.637633 H        1 UNL1     0.0789
     41 H         -5.065993   2.032061   6.021878 H        1 UNL1     0.0623
     42 H         -7.316121   3.030976   6.057566 H        1 UNL1     0.0654
     43 H         -7.488297   2.519671   10.318823 H        1 UNL1     0.0654
     44 H         -5.284018   1.496418   10.311098 H        1 UNL1     0.0623
     45 H         -8.663754   4.339403   7.80282 H        1 UNL1     0.2921
     46 H         -4.454286   -3.727791   6.983393 H        1 UNL1     0.2922
     47 H         0.516776   0.365116   2.263902 H        1 UNL1     0.2126
     48 H         1.20169   -1.887682   -0.285086 H        1 UNL1     0.2101
     49 H         -2.022474   0.931782   -0.901669 H        1 UNL1     0.2100
     50 H         -2.674243   -3.339727   -1.148628 H        1 UNL1     0.2102
@<TRIPOS>BOND
     1     1     2    1
     2     1     6    1
     3     2     3    1
     4     3     4    1
     5     3    29    1
     6     3    33    1
     7     4     5    1
     8     5     6    1
     9     5     7    1
    10     5    35    1
    11     7     8    1
    12     8     9   ar
    13     8    13   ar
    14     9    10   ar
    15     9    36    1
    16    10    11   ar
    17    10    26    1
    18    11    12   ar
    19    11    14    1
    20    12    13   ar
    21    12    17    1
    22    13    37    1
    23    14    15    1
    24    14    25    2
    25    15    16    1
    26    15    38    1
    27    15    39    1
    28    16    17    1
    29    16    18    1
    30    16    40    1
    31    18    19   ar
    32    18    23   ar
    33    19    20   ar
    34    19    41    1
    35    20    21   ar
    36    20    42    1
    37    21    22   ar
    38    21    24    1
    39    22    23   ar
    40    22    43    1
    41    23    44    1
    42    24    45    1
    43    26    46    1
    44    27    47    1
    45    28    48    1
    46    29    49    1
    47    30    50    1
    48     1    31    1
    49     1    27    1
    50     2    32    1
    51     2    28    1
    52     4    34    1
    53     4    30    1
