@<TRIPOS>MOLECULE
*****
 50 53 0 0 0
SMALL
GASTEIGER

@<TRIPOS>ATOM
     1 C         0.663038   -1.989819   0.609759 C.3        1 UNL1     0.1889
     2 C         -0.251953   -1.045727   -0.215725 C.3        1 UNL1     0.1342
     3 C         -1.757505   -1.254841   0.007991 C.3        1 UNL1     0.1174
     4 C         -2.123062   -2.720873   0.253415 C.3        1 UNL1     0.1456
     5 C         -1.18955   -3.399296   1.272563 C.3        1 UNL1     0.2326
     6 O         0.163376   -3.300003   0.833702 O.3        1 UNL1     -0.3076
     7 O         -1.382005   -2.937676   2.622077 O.3        1 UNL1     -0.4605
     8 C         -1.15314   -3.868352   3.61957 C.ar        1 UNL1     0.1310
     9 C         -1.938419   -4.999142   3.868468 C.ar        1 UNL1     0.0226
     10 C         -1.61363   -5.894217   4.89475 C.ar        1 UNL1     0.1343
     11 C         -0.481058   -5.692707   5.682477 C.ar        1 UNL1     0.1007
     12 C         0.287828   -4.54531   5.470159 C.ar        1 UNL1     0.1389
     13 C         -0.040448   -3.644075   4.439897 C.ar        1 UNL1     0.0229
     14 C         -0.044375   -6.650219   6.724894 C.2        1 UNL1     0.1740
     15 C         1.309223   -6.391203   7.318386 C.3        1 UNL1     0.0520
     16 C         1.469349   -4.890139   7.51618 C.3        1 UNL1     0.1322
     17 O         1.360334   -4.192344   6.255915 O.3        1 UNL1     -0.4828
     18 C         0.594731   -4.319314   8.635075 C.ar        1 UNL1     -0.0067
     19 C         0.605221   -2.931183   8.882454 C.ar        1 UNL1     -0.0516
     20 C         -0.146274   -2.382239   9.928341 C.ar        1 UNL1     -0.0198
     21 C         -0.904854   -3.209798   10.736752 C.ar        1 UNL1     0.1169
     22 C         -0.961822   -4.576631   10.497246 C.ar        1 UNL1     -0.0198
     23 C         -0.224921   -5.123539   9.439927 C.ar        1 UNL1     -0.0516
     24 O         -1.593795   -2.643996   11.769044 O.3        1 UNL1     -0.5068
     25 O         -0.691589   -7.644151   7.043793 O.2        1 UNL1     -0.2917
     26 O         -2.421228   -6.977129   5.086254 O.3        1 UNL1     -0.5058
     27 O         1.148254   -1.402646   1.806663 O.3        1 UNL1     -0.3648
     28 O         0.008054   -1.266684   -1.614396 O.3        1 UNL1     -0.3841
     29 O         -2.243722   -0.384364   1.031708 O.3        1 UNL1     -0.3863
     30 O         -2.049896   -3.44279   -0.995253 O.3        1 UNL1     -0.3829
     31 H         1.562818   -2.1583   0.008021 H        1 UNL1     0.0937
     32 H         0.0   0.0   0.0 H        1 UNL1     0.0671
     33 H         -2.278799   -0.946545   -0.909029 H        1 UNL1     0.0649
     34 H         -3.15781   -2.794322   0.605981 H        1 UNL1     0.0683
     35 H         -1.465307   -4.459927   1.218714 H        1 UNL1     0.1085
     36 H         -2.799586   -5.24151   3.255467 H        1 UNL1     0.0691
     37 H         0.573614   -2.757695   4.295844 H        1 UNL1     0.0691
     38 H         2.057301   -6.779433   6.618969 H        1 UNL1     0.0385
     39 H         1.400611   -6.944862   8.259071 H        1 UNL1     0.0385
     40 H         2.504667   -4.714728   7.838466 H        1 UNL1     0.0789
     41 H         1.199682   -2.26146   8.26785 H        1 UNL1     0.0623
     42 H         -0.120541   -1.311736   10.116422 H        1 UNL1     0.0654
     43 H         -1.564424   -5.231917   11.114807 H        1 UNL1     0.0654
     44 H         -0.30117   -6.193987   9.275088 H        1 UNL1     0.0623
     45 H         -0.955183   -2.243137   12.380766 H        1 UNL1     0.2921
     46 H         -1.889655   -7.787921   5.04806 H        1 UNL1     0.2922
     47 H         1.594408   -0.566525   1.612478 H        1 UNL1     0.2126
     48 H         0.934244   -1.000226   -1.772207 H        1 UNL1     0.2101
     49 H         -2.237786   0.532999   0.715157 H        1 UNL1     0.2100
     50 H         -2.750377   -3.095731   -1.585668 H        1 UNL1     0.2102
@<TRIPOS>BOND
     1     1     2    1
     2     1     6    1
     3     2     3    1
     4     3     4    1
     5     3    29    1
     6     3    33    1
     7     4     5    1
     8     5     6    1
     9     5     7    1
    10     5    35    1
    11     7     8    1
    12     8     9   ar
    13     8    13   ar
    14     9    10   ar
    15     9    36    1
    16    10    11   ar
    17    10    26    1
    18    11    12   ar
    19    11    14    1
    20    12    13   ar
    21    12    17    1
    22    13    37    1
    23    14    15    1
    24    14    25    2
    25    15    16    1
    26    15    38    1
    27    15    39    1
    28    16    17    1
    29    16    18    1
    30    16    40    1
    31    18    19   ar
    32    18    23   ar
    33    19    20   ar
    34    19    41    1
    35    20    21   ar
    36    20    42    1
    37    21    22   ar
    38    21    24    1
    39    22    23   ar
    40    22    43    1
    41    23    44    1
    42    24    45    1
    43    26    46    1
    44    27    47    1
    45    28    48    1
    46    29    49    1
    47    30    50    1
    48     1    31    1
    49     1    27    1
    50     2    32    1
    51     2    28    1
    52     4    34    1
    53     4    30    1
