@<TRIPOS>MOLECULE
*****
 50 53 0 0 0
SMALL
GASTEIGER

@<TRIPOS>ATOM
     1 C         1.115065   -1.482595   1.152973 C.3        1 UNL1     0.1889
     2 C         -0.212989   -0.823074   0.693359 C.3        1 UNL1     0.1342
     3 C         -1.098009   -0.300112   1.835163 C.3        1 UNL1     0.1174
     4 C         -1.022664   -1.171614   3.091318 C.3        1 UNL1     0.1456
     5 C         0.42433   -1.53438   3.472072 C.3        1 UNL1     0.2326
     6 O         1.063332   -2.193469   2.381133 O.3        1 UNL1     -0.3076
     7 O         1.179738   -0.419998   3.980828 O.3        1 UNL1     -0.4605
     8 C         2.15963   0.08122   3.142901 C.ar        1 UNL1     0.1310
     9 C         2.980169   -0.683869   2.307045 C.ar        1 UNL1     0.0226
     10 C         3.934803   -0.079988   1.48006 C.ar        1 UNL1     0.1343
     11 C         4.075863   1.306776   1.451271 C.ar        1 UNL1     0.1007
     12 C         3.290482   2.078601   2.311646 C.ar        1 UNL1     0.1389
     13 C         2.332505   1.470978   3.145017 C.ar        1 UNL1     0.0229
     14 C         5.009755   2.002406   0.535794 C.2        1 UNL1     0.1740
     15 C         4.871882   3.495501   0.47914 C.3        1 UNL1     0.0520
     16 C         4.62867   4.010798   1.890974 C.3        1 UNL1     0.1322
     17 O         3.421399   3.441568   2.443734 O.3        1 UNL1     -0.4828
     18 C         5.853363   3.909379   2.803424 C.ar        1 UNL1     -0.0067
     19 C         5.694296   4.064412   4.19586 C.ar        1 UNL1     -0.0516
     20 C         6.799747   4.024614   5.053971 C.ar        1 UNL1     -0.0198
     21 C         8.067459   3.838193   4.532452 C.ar        1 UNL1     0.1169
     22 C         8.252382   3.649038   3.169051 C.ar        1 UNL1     -0.0198
     23 C         7.145038   3.670362   2.312668 C.ar        1 UNL1     -0.0516
     24 O         9.124138   3.842941   5.394895 O.3        1 UNL1     -0.5068
     25 O         5.799088   1.414992   -0.199313 O.2        1 UNL1     -0.2917
     26 O         4.704279   -0.882814   0.689514 O.3        1 UNL1     -0.5058
     27 O         2.229093   -0.605596   1.101967 O.3        1 UNL1     -0.3648
     28 O         -0.981627   -1.801749   -0.030587 O.3        1 UNL1     -0.3841
     29 O         -0.82314   1.077054   2.099724 O.3        1 UNL1     -0.3863
     30 O         -1.763142   -2.391062   2.866978 O.3        1 UNL1     -0.3829
     31 H         1.349581   -2.259507   0.417114 H        1 UNL1     0.0937
     32 H         0.0   0.0   0.0 H        1 UNL1     0.0671
     33 H         -2.141232   -0.328492   1.49078 H        1 UNL1     0.0649
     34 H         -1.499848   -0.657025   3.932682 H        1 UNL1     0.0683
     35 H         0.309228   -2.2779   4.2707 H        1 UNL1     0.1085
     36 H         2.881189   -1.761886   2.242217 H        1 UNL1     0.0691
     37 H         1.734317   2.094034   3.806428 H        1 UNL1     0.0691
     38 H         4.02519   3.725267   -0.176486 H        1 UNL1     0.0385
     39 H         5.776152   3.922771   0.03247 H        1 UNL1     0.0385
     40 H         4.414058   5.085071   1.810982 H        1 UNL1     0.0789
     41 H         4.710686   4.221145   4.628986 H        1 UNL1     0.0623
     42 H         6.665447   4.157341   6.124653 H        1 UNL1     0.0654
     43 H         9.239071   3.487272   2.751693 H        1 UNL1     0.0654
     44 H         7.325126   3.508564   1.254257 H        1 UNL1     0.0623
     45 H         9.498   4.738741   5.416936 H        1 UNL1     0.2921
     46 H         5.632961   -0.610401   0.758445 H        1 UNL1     0.2922
     47 H         2.156674   -0.0164   0.338119 H        1 UNL1     0.2126
     48 H         -0.349053   -2.473729   -0.349999 H        1 UNL1     0.2101
     49 H         -1.166242   1.626757   1.377297 H        1 UNL1     0.2100
     50 H         -1.929189   -2.47029   1.90476 H        1 UNL1     0.2102
@<TRIPOS>BOND
     1     1     2    1
     2     1     6    1
     3     2     3    1
     4     3     4    1
     5     3    29    1
     6     3    33    1
     7     4     5    1
     8     5     6    1
     9     5     7    1
    10     5    35    1
    11     7     8    1
    12     8     9   ar
    13     8    13   ar
    14     9    10   ar
    15     9    36    1
    16    10    11   ar
    17    10    26    1
    18    11    12   ar
    19    11    14    1
    20    12    13   ar
    21    12    17    1
    22    13    37    1
    23    14    15    1
    24    14    25    2
    25    15    16    1
    26    15    38    1
    27    15    39    1
    28    16    17    1
    29    16    18    1
    30    16    40    1
    31    18    19   ar
    32    18    23   ar
    33    19    20   ar
    34    19    41    1
    35    20    21   ar
    36    20    42    1
    37    21    22   ar
    38    21    24    1
    39    22    23   ar
    40    22    43    1
    41    23    44    1
    42    24    45    1
    43    26    46    1
    44    27    47    1
    45    28    48    1
    46    29    49    1
    47    30    50    1
    48     1    31    1
    49     1    27    1
    50     2    32    1
    51     2    28    1
    52     4    34    1
    53     4    30    1
