@<TRIPOS>MOLECULE
*****
 50 53 0 0 0
SMALL
GASTEIGER

@<TRIPOS>ATOM
     1 C         -0.393517   -1.378628   1.647827 C.3        1 UNL1     0.1889
     2 C         -0.492965   -0.967891   0.154058 C.3        1 UNL1     0.1342
     3 C         -1.925339   -0.893997   -0.396677 C.3        1 UNL1     0.1174
     4 C         -2.850761   -1.950034   0.212829 C.3        1 UNL1     0.1456
     5 C         -2.721116   -2.035081   1.7446 C.3        1 UNL1     0.2326
     6 O         -1.368017   -2.30545   2.103616 O.3        1 UNL1     -0.3076
     7 O         -3.271781   -0.896003   2.430596 O.3        1 UNL1     -0.4605
     8 C         -3.815372   -1.144188   3.67817 C.ar        1 UNL1     0.1310
     9 C         -4.900353   -1.989   3.935866 C.ar        1 UNL1     0.0226
     10 C         -5.368008   -2.189075   5.240155 C.ar        1 UNL1     0.1343
     11 C         -4.746299   -1.567111   6.322043 C.ar        1 UNL1     0.1007
     12 C         -3.687942   -0.689197   6.073183 C.ar        1 UNL1     0.1389
     13 C         -3.21959   -0.486135   4.761374 C.ar        1 UNL1     0.0229
     14 C         -5.145627   -1.808261   7.727937 C.2        1 UNL1     0.1740
     15 C         -4.230794   -1.235204   8.770163 C.3        1 UNL1     0.0520
     16 C         -3.778974   0.14364   8.309071 C.3        1 UNL1     0.1322
     17 O         -3.073654   0.058082   7.051187 O.3        1 UNL1     -0.4828
     18 C         -4.887033   1.198947   8.344536 C.ar        1 UNL1     -0.0067
     19 C         -4.560783   2.553279   8.126456 C.ar        1 UNL1     -0.0516
     20 C         -5.542055   3.549183   8.198864 C.ar        1 UNL1     -0.0198
     21 C         -6.848869   3.205271   8.495154 C.ar        1 UNL1     0.1169
     22 C         -7.20733   1.876561   8.681901 C.ar        1 UNL1     -0.0198
     23 C         -6.229717   0.878499   8.591333 C.ar        1 UNL1     -0.0516
     24 O         -7.769958   4.206319   8.594646 O.3        1 UNL1     -0.5068
     25 O         -6.111434   -2.496217   8.047966 O.2        1 UNL1     -0.2917
     26 O         -6.430898   -3.024655   5.423613 O.3        1 UNL1     -0.5058
     27 O         -0.267136   -0.275051   2.530399 O.3        1 UNL1     -0.3648
     28 O         0.219589   -1.939094   -0.634446 O.3        1 UNL1     -0.3841
     29 O         -2.445766   0.431755   -0.279753 O.3        1 UNL1     -0.3863
     30 O         -2.533587   -3.240732   -0.352139 O.3        1 UNL1     -0.3829
     31 H         0.550265   -1.92333   1.760322 H        1 UNL1     0.0937
     32 H         0.0   0.0   0.0 H        1 UNL1     0.0671
     33 H         -1.880429   -1.095669   -1.476043 H        1 UNL1     0.0649
     34 H         -3.891675   -1.731916   -0.050464 H        1 UNL1     0.0683
     35 H         -3.305543   -2.924802   2.010536 H        1 UNL1     0.1085
     36 H         -5.390886   -2.544768   3.144272 H        1 UNL1     0.0691
     37 H         -2.394825   0.203274   4.594128 H        1 UNL1     0.0691
     38 H         -3.378996   -1.915851   8.873537 H        1 UNL1     0.0385
     39 H         -4.757942   -1.198801   9.729625 H        1 UNL1     0.0385
     40 H         -3.022394   0.492519   9.024885 H        1 UNL1     0.0789
     41 H         -3.540536   2.850035   7.901329 H        1 UNL1     0.0623
     42 H         -5.275716   4.59129   8.040473 H        1 UNL1     0.0654
     43 H         -8.230573   1.5946   8.899574 H        1 UNL1     0.0654
     44 H         -6.547176   -0.150164   8.732457 H        1 UNL1     0.0623
     45 H         -7.299758   5.041308   8.75092 H        1 UNL1     0.2921
     46 H         -6.255549   -3.610593   6.176834 H        1 UNL1     0.2922
     47 H         -0.471877   0.549224   2.067245 H        1 UNL1     0.2126
     48 H         -0.271845   -2.779226   -0.554421 H        1 UNL1     0.2101
     49 H         -3.002669   0.49902   0.512161 H        1 UNL1     0.2100
     50 H         -1.580715   -3.244376   -0.579592 H        1 UNL1     0.2102
@<TRIPOS>BOND
     1     1     2    1
     2     1     6    1
     3     2     3    1
     4     3     4    1
     5     3    29    1
     6     3    33    1
     7     4     5    1
     8     5     6    1
     9     5     7    1
    10     5    35    1
    11     7     8    1
    12     8     9   ar
    13     8    13   ar
    14     9    10   ar
    15     9    36    1
    16    10    11   ar
    17    10    26    1
    18    11    12   ar
    19    11    14    1
    20    12    13   ar
    21    12    17    1
    22    13    37    1
    23    14    15    1
    24    14    25    2
    25    15    16    1
    26    15    38    1
    27    15    39    1
    28    16    17    1
    29    16    18    1
    30    16    40    1
    31    18    19   ar
    32    18    23   ar
    33    19    20   ar
    34    19    41    1
    35    20    21   ar
    36    20    42    1
    37    21    22   ar
    38    21    24    1
    39    22    23   ar
    40    22    43    1
    41    23    44    1
    42    24    45    1
    43    26    46    1
    44    27    47    1
    45    28    48    1
    46    29    49    1
    47    30    50    1
    48     1    31    1
    49     1    27    1
    50     2    32    1
    51     2    28    1
    52     4    34    1
    53     4    30    1
