@<TRIPOS>MOLECULE
*****
 50 53 0 0 0
SMALL
GASTEIGER

@<TRIPOS>ATOM
     1 C         -0.480201   1.10362   1.8227 C.3        1 UNL1     0.1889
     2 C         -0.476205   0.948398   0.278087 C.3        1 UNL1     0.1342
     3 C         0.210316   2.095002   -0.47984 C.3        1 UNL1     0.1174
     4 C         0.010604   3.455018   0.193649 C.3        1 UNL1     0.1456
     5 C         0.262371   3.40455   1.711684 C.3        1 UNL1     0.2326
     6 O         -0.588681   2.431695   2.313458 O.3        1 UNL1     -0.3076
     7 O         1.649065   3.234628   2.057409 O.3        1 UNL1     -0.4605
     8 C         2.080417   3.911975   3.183759 C.ar        1 UNL1     0.1310
     9 C         1.375146   4.927583   3.838308 C.ar        1 UNL1     0.0226
     10 C         1.890111   5.542739   4.985608 C.ar        1 UNL1     0.1343
     11 C         3.113163   5.140335   5.520449 C.ar        1 UNL1     0.1007
     12 C         3.845683   4.155606   4.852238 C.ar        1 UNL1     0.1389
     13 C         3.328891   3.539064   3.697148 C.ar        1 UNL1     0.0229
     14 C         3.664946   5.697522   6.777124 C.2        1 UNL1     0.1740
     15 C         4.873866   4.995834   7.322738 C.3        1 UNL1     0.0520
     16 C         5.786141   4.632577   6.159228 C.3        1 UNL1     0.1322
     17 O         5.108012   3.759639   5.229072 O.3        1 UNL1     -0.4828
     18 C         6.470635   5.839396   5.512868 C.ar        1 UNL1     -0.0067
     19 C         5.882201   6.447353   4.384884 C.ar        1 UNL1     -0.0516
     20 C         6.505997   7.522728   3.741138 C.ar        1 UNL1     -0.0198
     21 C         7.719317   7.993588   4.21015 C.ar        1 UNL1     0.1169
     22 C         8.307203   7.437352   5.338791 C.ar        1 UNL1     -0.0198
     23 C         7.674542   6.373952   5.993754 C.ar        1 UNL1     -0.0516
     24 O         8.315533   9.017734   3.534833 O.3        1 UNL1     -0.5068
     25 O         3.140672   6.620437   7.395064 O.2        1 UNL1     -0.2917
     26 O         1.153064   6.527569   5.575911 O.3        1 UNL1     -0.5058
     27 O         0.565316   0.391626   2.465153 O.3        1 UNL1     -0.3648
     28 O         -1.840494   0.889794   -0.177967 O.3        1 UNL1     -0.3841
     29 O         1.586365   1.792523   -0.718854 O.3        1 UNL1     -0.3863
     30 O         -1.342346   3.904112   -0.037715 O.3        1 UNL1     -0.3829
     31 H         -1.395665   0.62187   2.183145 H        1 UNL1     0.0937
     32 H         0.0   0.0   -0.0 H        1 UNL1     0.0671
     33 H         -0.250728   2.162482   -1.475132 H        1 UNL1     0.0649
     34 H         0.676738   4.19788   -0.258926 H        1 UNL1     0.0683
     35 H         -0.073441   4.386353   2.068296 H        1 UNL1     0.1085
     36 H         0.393811   5.246627   3.504672 H        1 UNL1     0.0691
     37 H         3.919327   2.77581   3.194831 H        1 UNL1     0.0691
     38 H         4.527535   4.099295   7.847904 H        1 UNL1     0.0385
     39 H         5.369778   5.64798   8.049756 H        1 UNL1     0.0385
     40 H         6.601598   4.019591   6.56641 H        1 UNL1     0.0789
     41 H         4.934745   6.090335   3.991798 H        1 UNL1     0.0623
     42 H         6.04806   7.975344   2.865099 H        1 UNL1     0.0654
     43 H         9.249764   7.808136   5.72351 H        1 UNL1     0.0654
     44 H         8.156982   5.970439   6.878781 H        1 UNL1     0.0623
     45 H         8.143978   9.843384   4.016068 H        1 UNL1     0.2921
     46 H         0.431206   6.790698   4.983377 H        1 UNL1     0.2922
     47 H         0.203883   -0.348689   2.972263 H        1 UNL1     0.2126
     48 H         -1.889798   1.43901   -0.983984 H        1 UNL1     0.2101
     49 H         2.121651   2.596913   -0.628189 H        1 UNL1     0.2100
     50 H         -1.856327   3.747249   0.781388 H        1 UNL1     0.2102
@<TRIPOS>BOND
     1     1     2    1
     2     1     6    1
     3     2     3    1
     4     3     4    1
     5     3    29    1
     6     3    33    1
     7     4     5    1
     8     5     6    1
     9     5     7    1
    10     5    35    1
    11     7     8    1
    12     8     9   ar
    13     8    13   ar
    14     9    10   ar
    15     9    36    1
    16    10    11   ar
    17    10    26    1
    18    11    12   ar
    19    11    14    1
    20    12    13   ar
    21    12    17    1
    22    13    37    1
    23    14    15    1
    24    14    25    2
    25    15    16    1
    26    15    38    1
    27    15    39    1
    28    16    17    1
    29    16    18    1
    30    16    40    1
    31    18    19   ar
    32    18    23   ar
    33    19    20   ar
    34    19    41    1
    35    20    21   ar
    36    20    42    1
    37    21    22   ar
    38    21    24    1
    39    22    23   ar
    40    22    43    1
    41    23    44    1
    42    24    45    1
    43    26    46    1
    44    27    47    1
    45    28    48    1
    46    29    49    1
    47    30    50    1
    48     1    31    1
    49     1    27    1
    50     2    32    1
    51     2    28    1
    52     4    34    1
    53     4    30    1
