@<TRIPOS>MOLECULE
*****
 50 53 0 0 0
SMALL
GASTEIGER

@<TRIPOS>ATOM
     1 C         -0.216081   -1.242028   1.78367 C.3        1 UNL1     0.1889
     2 C         -0.528284   -0.913886   0.298816 C.3        1 UNL1     0.1342
     3 C         -2.022408   -0.756875   -0.02275 C.3        1 UNL1     0.1174
     4 C         -2.90832   -1.696385   0.799199 C.3        1 UNL1     0.1456
     5 C         -2.53725   -1.700681   2.293405 C.3        1 UNL1     0.2326
     6 O         -1.166218   -2.058113   2.452729 O.3        1 UNL1     -0.3076
     7 O         -2.887141   -0.482033   2.974429 O.3        1 UNL1     -0.4605
     8 C         -3.236407   -0.610902   4.306696 C.ar        1 UNL1     0.1310
     9 C         -4.097243   -1.582533   4.82842 C.ar        1 UNL1     0.0226
     10 C         -4.37623   -1.641491   6.199038 C.ar        1 UNL1     0.1343
     11 C         -3.781861   -0.74415   7.085234 C.ar        1 UNL1     0.1007
     12 C         -2.952663   0.256222   6.570968 C.ar        1 UNL1     0.1389
     13 C         -2.674381   0.316934   5.192453 C.ar        1 UNL1     0.0229
     14 C         -3.97543   -0.813434   8.552165 C.2        1 UNL1     0.1740
     15 C         -3.089874   0.082908   9.366973 C.3        1 UNL1     0.0520
     16 C         -2.974032   1.423128   8.653988 C.3        1 UNL1     0.1322
     17 O         -2.401483   1.256156   7.33817 O.3        1 UNL1     -0.4828
     18 C         -4.260998   2.25105   8.685412 C.ar        1 UNL1     -0.0067
     19 C         -4.391515   3.361104   7.825784 C.ar        1 UNL1     -0.0516
     20 C         -5.535391   4.167433   7.86244 C.ar        1 UNL1     -0.0198
     21 C         -6.550259   3.87922   8.757316 C.ar        1 UNL1     0.1169
     22 C         -6.465509   2.773349   9.593203 C.ar        1 UNL1     -0.0198
     23 C         -5.329853   1.956093   9.543865 C.ar        1 UNL1     -0.0516
     24 O         -7.632301   4.70896   8.79074 O.3        1 UNL1     -0.5068
     25 O         -4.745049   -1.601007   9.096131 O.2        1 UNL1     -0.2917
     26 O         -5.225165   -2.612673   6.643673 O.3        1 UNL1     -0.5058
     27 O         0.129839   -0.101945   2.553954 O.3        1 UNL1     -0.3648
     28 O         -0.023934   -1.984713   -0.520736 O.3        1 UNL1     -0.3841
     29 O         -2.422066   0.611304   0.079684 O.3        1 UNL1     -0.3863
     30 O         -2.779191   -3.039776   0.285081 O.3        1 UNL1     -0.3829
     31 H         0.692639   -1.853834   1.784454 H        1 UNL1     0.0937
     32 H         0.0   0.0   0.0 H        1 UNL1     0.0671
     33 H         -2.168225   -1.025175   -1.078435 H        1 UNL1     0.0649
     34 H         -3.960215   -1.410578   0.688605 H        1 UNL1     0.0683
     35 H         -3.131811   -2.522741   2.711249 H        1 UNL1     0.1085
     36 H         -4.546694   -2.343115   4.19943 H        1 UNL1     0.0691
     37 H         -2.026457   1.106103   4.817085 H        1 UNL1     0.0691
     38 H         -2.113015   -0.405004   9.451919 H        1 UNL1     0.0385
     39 H         -3.510253   0.184268   10.373346 H        1 UNL1     0.0385
     40 H         -2.231926   2.01865   9.202761 H        1 UNL1     0.0789
     41 H         -3.604926   3.613738   7.120728 H        1 UNL1     0.0623
     42 H         -5.618989   5.027596   7.202787 H        1 UNL1     0.0654
     43 H         -7.261051   2.529767   10.287242 H        1 UNL1     0.0654
     44 H         -5.30184   1.094333   10.203736 H        1 UNL1     0.0623
     45 H         -7.339964   5.581913   9.099297 H        1 UNL1     0.2921
     46 H         -4.788076   -3.131747   7.337163 H        1 UNL1     0.2922
     47 H         0.864476   0.371794   2.139539 H        1 UNL1     0.2126
     48 H         0.948995   -1.965483   -0.438449 H        1 UNL1     0.2101
     49 H         -2.030425   1.124638   -0.644816 H        1 UNL1     0.2100
     50 H         -3.175231   -3.059143   -0.610737 H        1 UNL1     0.2102
@<TRIPOS>BOND
     1     1     2    1
     2     1     6    1
     3     2     3    1
     4     3     4    1
     5     3    29    1
     6     3    33    1
     7     4     5    1
     8     5     6    1
     9     5     7    1
    10     5    35    1
    11     7     8    1
    12     8     9   ar
    13     8    13   ar
    14     9    10   ar
    15     9    36    1
    16    10    11   ar
    17    10    26    1
    18    11    12   ar
    19    11    14    1
    20    12    13   ar
    21    12    17    1
    22    13    37    1
    23    14    15    1
    24    14    25    2
    25    15    16    1
    26    15    38    1
    27    15    39    1
    28    16    17    1
    29    16    18    1
    30    16    40    1
    31    18    19   ar
    32    18    23   ar
    33    19    20   ar
    34    19    41    1
    35    20    21   ar
    36    20    42    1
    37    21    22   ar
    38    21    24    1
    39    22    23   ar
    40    22    43    1
    41    23    44    1
    42    24    45    1
    43    26    46    1
    44    27    47    1
    45    28    48    1
    46    29    49    1
    47    30    50    1
    48     1    31    1
    49     1    27    1
    50     2    32    1
    51     2    28    1
    52     4    34    1
    53     4    30    1
