@<TRIPOS>MOLECULE
*****
 50 53 0 0 0
SMALL
GASTEIGER

@<TRIPOS>ATOM
     1 C         -1.940735   0.475494   0.882188 C.3        1 UNL1     0.1889
     2 C         -0.399458   0.639992   0.796496 C.3        1 UNL1     0.1342
     3 C         0.350991   0.340946   2.103348 C.3        1 UNL1     0.1174
     4 C         -0.436566   0.756482   3.348419 C.3        1 UNL1     0.1456
     5 C         -1.906524   0.30168   3.29603 C.3        1 UNL1     0.2326
     6 O         -2.534219   0.819854   2.125405 O.3        1 UNL1     -0.3076
     7 O         -2.072268   -1.1202   3.44471 O.3        1 UNL1     -0.4605
     8 C         -0.949863   -1.822797   3.844824 C.ar        1 UNL1     0.1310
     9 C         -0.958906   -3.031938   4.548526 C.ar        1 UNL1     0.0226
     10 C         0.234496   -3.676983   4.894375 C.ar        1 UNL1     0.1343
     11 C         1.466637   -3.140052   4.523735 C.ar        1 UNL1     0.1007
     12 C         1.489643   -1.912336   3.856676 C.ar        1 UNL1     0.1389
     13 C         0.289621   -1.262618   3.511358 C.ar        1 UNL1     0.0229
     14 C         2.754755   -3.821375   4.789636 C.2        1 UNL1     0.1740
     15 C         3.958074   -3.215965   4.128537 C.3        1 UNL1     0.0520
     16 C         3.841395   -1.700185   4.210724 C.3        1 UNL1     0.1322
     17 O         2.647466   -1.240647   3.539586 O.3        1 UNL1     -0.4828
     18 C         4.028723   -1.143508   5.62414 C.ar        1 UNL1     -0.0067
     19 C         2.921197   -0.59973   6.306712 C.ar        1 UNL1     -0.0516
     20 C         3.067325   -0.039464   7.581354 C.ar        1 UNL1     -0.0198
     21 C         4.314276   -0.010337   8.179762 C.ar        1 UNL1     0.1169
     22 C         5.41755   -0.56803   7.546829 C.ar        1 UNL1     -0.0198
     23 C         5.268189   -1.144934   6.279971 C.ar        1 UNL1     -0.0516
     24 O         4.425131   0.577411   9.405594 O.3        1 UNL1     -0.5068
     25 O         2.848906   -4.860318   5.437879 O.2        1 UNL1     -0.2917
     26 O         0.156741   -4.852966   5.581836 O.3        1 UNL1     -0.5058
     27 O         -2.402236   -0.780852   0.411659 O.3        1 UNL1     -0.3648
     28 O         -0.105514   2.00243   0.43585 O.3        1 UNL1     -0.3841
     29 O         0.772535   -1.023859   2.145075 O.3        1 UNL1     -0.3863
     30 O         -0.399959   2.194739   3.473983 O.3        1 UNL1     -0.3829
     31 H         -2.37204   1.200265   0.183072 H        1 UNL1     0.0937
     32 H         0.0   0.0   0.0 H        1 UNL1     0.0671
     33 H         1.277189   0.932446   2.101081 H        1 UNL1     0.0649
     34 H         0.0378   0.344196   4.245858 H        1 UNL1     0.0683
     35 H         -2.36947   0.803575   4.154902 H        1 UNL1     0.1085
     36 H         -1.884878   -3.528733   4.816652 H        1 UNL1     0.0691
     37 H         0.334674   -0.3072   2.993053 H        1 UNL1     0.0691
     38 H         3.969713   -3.555312   3.087271 H        1 UNL1     0.0385
     39 H         4.863218   -3.588814   4.619938 H        1 UNL1     0.0385
     40 H         4.66705   -1.279517   3.620934 H        1 UNL1     0.0789
     41 H         1.933621   -0.60223   5.854675 H        1 UNL1     0.0623
     42 H         2.207908   0.387386   8.092443 H        1 UNL1     0.0654
     43 H         6.395716   -0.564083   8.012753 H        1 UNL1     0.0654
     44 H         6.149421   -1.580815   5.819229 H        1 UNL1     0.0623
     45 H         3.564997   0.519681   9.852309 H        1 UNL1     0.2921
     46 H         0.939984   -4.950195   6.146184 H        1 UNL1     0.2922
     47 H         -2.901394   -0.668111   -0.40931 H        1 UNL1     0.2126
     48 H         -0.711809   2.23577   -0.293322 H        1 UNL1     0.2101
     49 H         -0.002093   -1.607848   2.171597 H        1 UNL1     0.2100
     50 H         -0.810417   2.578016   2.671278 H        1 UNL1     0.2102
@<TRIPOS>BOND
     1     1     2    1
     2     1     6    1
     3     2     3    1
     4     3     4    1
     5     3    29    1
     6     3    33    1
     7     4     5    1
     8     5     6    1
     9     5     7    1
    10     5    35    1
    11     7     8    1
    12     8     9   ar
    13     8    13   ar
    14     9    10   ar
    15     9    36    1
    16    10    11   ar
    17    10    26    1
    18    11    12   ar
    19    11    14    1
    20    12    13   ar
    21    12    17    1
    22    13    37    1
    23    14    15    1
    24    14    25    2
    25    15    16    1
    26    15    38    1
    27    15    39    1
    28    16    17    1
    29    16    18    1
    30    16    40    1
    31    18    19   ar
    32    18    23   ar
    33    19    20   ar
    34    19    41    1
    35    20    21   ar
    36    20    42    1
    37    21    22   ar
    38    21    24    1
    39    22    23   ar
    40    22    43    1
    41    23    44    1
    42    24    45    1
    43    26    46    1
    44    27    47    1
    45    28    48    1
    46    29    49    1
    47    30    50    1
    48     1    31    1
    49     1    27    1
    50     2    32    1
    51     2    28    1
    52     4    34    1
    53     4    30    1
