@<TRIPOS>MOLECULE
*****
 50 53 0 0 0
SMALL
GASTEIGER

@<TRIPOS>ATOM
     1 C         -0.419603   -1.367232   1.650883 C.3        1 UNL1     0.1889
     2 C         -0.50712   -0.960348   0.155314 C.3        1 UNL1     0.1342
     3 C         -1.936033   -0.868315   -0.401644 C.3        1 UNL1     0.1174
     4 C         -2.878679   -1.909155   0.207609 C.3        1 UNL1     0.1456
     5 C         -2.756559   -1.990674   1.74019 C.3        1 UNL1     0.2326
     6 O         -1.408876   -2.278719   2.105774 O.3        1 UNL1     -0.3076
     7 O         -3.294021   -0.841611   2.419976 O.3        1 UNL1     -0.4605
     8 C         -3.842784   -1.077178   3.667732 C.ar        1 UNL1     0.1310
     9 C         -4.715583   -2.123631   3.984685 C.ar        1 UNL1     0.0226
     10 C         -5.205426   -2.288592   5.28574 C.ar        1 UNL1     0.1343
     11 C         -4.815153   -1.424261   6.307729 C.ar        1 UNL1     0.1007
     12 C         -3.976452   -0.351255   5.994643 C.ar        1 UNL1     0.1389
     13 C         -3.486152   -0.18405   4.685796 C.ar        1 UNL1     0.0229
     14 C         -5.235559   -1.601711   7.716957 C.2        1 UNL1     0.1740
     15 C         -4.546921   -0.718979   8.716012 C.3        1 UNL1     0.0520
     16 C         -4.399959   0.670298   8.110811 C.3        1 UNL1     0.1322
     17 O         -3.615957   0.62115   6.898378 O.3        1 UNL1     -0.4828
     18 C         -5.723044   1.42869   7.980383 C.ar        1 UNL1     -0.0067
     19 C         -6.038891   2.065967   6.762873 C.ar        1 UNL1     -0.0516
     20 C         -7.218346   2.807494   6.625077 C.ar        1 UNL1     -0.0198
     21 C         -8.084652   2.925169   7.697222 C.ar        1 UNL1     0.1169
     22 C         -7.817488   2.281414   8.898489 C.ar        1 UNL1     -0.0198
     23 C         -6.647124   1.524572   9.030754 C.ar        1 UNL1     -0.0516
     24 O         -9.204919   3.686682   7.537535 O.3        1 UNL1     -0.5068
     25 O         -6.033124   -2.461681   8.081411 O.2        1 UNL1     -0.2917
     26 O         -6.054236   -3.328814   5.528733 O.3        1 UNL1     -0.5058
     27 O         -0.281402   -0.262465   2.530189 O.3        1 UNL1     -0.3648
     28 O         0.194991   -1.944178   -0.626878 O.3        1 UNL1     -0.3841
     29 O         -2.438296   0.464996   -0.291434 O.3        1 UNL1     -0.3863
     30 O         -2.577307   -3.20613   -0.351607 O.3        1 UNL1     -0.3829
     31 H         0.515975   -1.924706   1.769181 H        1 UNL1     0.0937
     32 H         0.0   0.0   0.0 H        1 UNL1     0.0671
     33 H         -1.889504   -1.074355   -1.480116 H        1 UNL1     0.0649
     34 H         -3.915337   -1.677396   -0.060772 H        1 UNL1     0.0683
     35 H         -3.354496   -2.871189   2.00673 H        1 UNL1     0.1085
     36 H         -5.012308   -2.861731   3.247608 H        1 UNL1     0.0691
     37 H         -2.835474   0.660066   4.467666 H        1 UNL1     0.0691
     38 H         -3.568466   -1.161931   8.930363 H        1 UNL1     0.0385
     39 H         -5.127692   -0.706763   9.644632 H        1 UNL1     0.0385
     40 H         -3.792116   1.263984   8.806932 H        1 UNL1     0.0789
     41 H         -5.370887   1.996332   5.909309 H        1 UNL1     0.0623
     42 H         -7.44489   3.304118   5.684836 H        1 UNL1     0.0654
     43 H         -8.4964   2.354514   9.739705 H        1 UNL1     0.0654
     44 H         -6.475419   1.026427   9.980077 H        1 UNL1     0.0623
     45 H         -8.931333   4.59624   7.336112 H        1 UNL1     0.2921
     46 H         -5.691773   -3.883317   6.237646 H        1 UNL1     0.2922
     47 H         0.487092   0.269688   2.281012 H        1 UNL1     0.2126
     48 H         1.12854   -1.913933   -0.34174 H        1 UNL1     0.2101
     49 H         -1.969104   1.046626   -0.910595 H        1 UNL1     0.2100
     50 H         -2.79873   -3.181978   -1.305599 H        1 UNL1     0.2102
@<TRIPOS>BOND
     1     1     2    1
     2     1     6    1
     3     2     3    1
     4     3     4    1
     5     3    29    1
     6     3    33    1
     7     4     5    1
     8     5     6    1
     9     5     7    1
    10     5    35    1
    11     7     8    1
    12     8     9   ar
    13     8    13   ar
    14     9    10   ar
    15     9    36    1
    16    10    11   ar
    17    10    26    1
    18    11    12   ar
    19    11    14    1
    20    12    13   ar
    21    12    17    1
    22    13    37    1
    23    14    15    1
    24    14    25    2
    25    15    16    1
    26    15    38    1
    27    15    39    1
    28    16    17    1
    29    16    18    1
    30    16    40    1
    31    18    19   ar
    32    18    23   ar
    33    19    20   ar
    34    19    41    1
    35    20    21   ar
    36    20    42    1
    37    21    22   ar
    38    21    24    1
    39    22    23   ar
    40    22    43    1
    41    23    44    1
    42    24    45    1
    43    26    46    1
    44    27    47    1
    45    28    48    1
    46    29    49    1
    47    30    50    1
    48     1    31    1
    49     1    27    1
    50     2    32    1
    51     2    28    1
    52     4    34    1
    53     4    30    1
