@<TRIPOS>MOLECULE
*****
 50 53 0 0 0
SMALL
GASTEIGER

@<TRIPOS>ATOM
     1 C         0.007305   -1.135752   1.865695 C.3        1 UNL1     0.1889
     2 C         -0.265898   -1.007608   0.342908 C.3        1 UNL1     0.1342
     3 C         -1.711425   -1.314748   -0.077311 C.3        1 UNL1     0.1174
     4 C         -2.35327   -2.4183   0.767274 C.3        1 UNL1     0.1456
     5 C         -2.117583   -2.219618   2.275697 C.3        1 UNL1     0.2326
     6 O         -0.719024   -2.149948   2.544111 O.3        1 UNL1     -0.3076
     7 O         -2.855964   -1.115981   2.830764 O.3        1 UNL1     -0.4605
     8 C         -3.259143   -1.256919   4.146481 C.ar        1 UNL1     0.1310
     9 C         -3.853271   -2.399061   4.694044 C.ar        1 UNL1     0.0226
     10 C         -4.211689   -2.450812   6.046361 C.ar        1 UNL1     0.1343
     11 C         -3.962654   -1.369259   6.890201 C.ar        1 UNL1     0.1007
     12 C         -3.407407   -0.208134   6.345892 C.ar        1 UNL1     0.1389
     13 C         -3.049532   -0.155387   4.985534 C.ar        1 UNL1     0.0229
     14 C         -4.244014   -1.400765   8.344161 C.2        1 UNL1     0.1740
     15 C         -3.710381   -0.241916   9.134005 C.3        1 UNL1     0.0520
     16 C         -3.917013   1.029871   8.322946 C.3        1 UNL1     0.1322
     17 O         -3.218948   0.952063   7.060519 O.3        1 UNL1     -0.4828
     18 C         -5.382074   1.458921   8.212325 C.ar        1 UNL1     -0.0067
     19 C         -5.908024   1.808499   6.951617 C.ar        1 UNL1     -0.0516
     20 C         -7.230078   2.250565   6.822338 C.ar        1 UNL1     -0.0198
     21 C         -8.032292   2.35419   7.944632 C.ar        1 UNL1     0.1169
     22 C         -7.553241   1.985409   9.194971 C.ar        1 UNL1     -0.0198
     23 C         -6.236933   1.525758   9.321894 C.ar        1 UNL1     -0.0516
     24 O         -9.302636   2.824519   7.785202 O.3        1 UNL1     -0.5068
     25 O         -4.803892   -2.339532   8.904285 O.2        1 UNL1     -0.2917
     26 O         -4.788486   -3.593862   6.517876 O.3        1 UNL1     -0.5058
     27 O         -0.051486   0.101904   2.556736 O.3        1 UNL1     -0.3648
     28 O         0.588593   -1.933791   -0.35332 O.3        1 UNL1     -0.3841
     29 O         -2.493861   -0.119493   -0.113235 O.3        1 UNL1     -0.3863
     30 O         -1.803189   -3.694955   0.375799 O.3        1 UNL1     -0.3829
     31 H         1.050285   -1.453942   1.970705 H        1 UNL1     0.0937
     32 H         0.0   0.0   0.0 H        1 UNL1     0.0671
     33 H         -1.688992   -1.680039   -1.113545 H        1 UNL1     0.0649
     34 H         -3.430542   -2.459972   0.571953 H        1 UNL1     0.0683
     35 H         -2.482645   -3.151456   2.72546 H        1 UNL1     0.1085
     36 H         -4.021955   -3.292893   4.103511 H        1 UNL1     0.0691
     37 H         -2.61984   0.760688   4.585954 H        1 UNL1     0.0691
     38 H         -2.64607   -0.426462   9.314866 H        1 UNL1     0.0385
     39 H         -4.220165   -0.202645   10.102694 H        1 UNL1     0.0385
     40 H         -3.415896   1.843879   8.86405 H        1 UNL1     0.0789
     41 H         -5.295848   1.744576   6.05674 H        1 UNL1     0.0623
     42 H         -7.620361   2.528531   5.846415 H        1 UNL1     0.0654
     43 H         -8.17757   2.048353   10.078239 H        1 UNL1     0.0654
     44 H         -5.899075   1.236167   10.312265 H        1 UNL1     0.0623
     45 H         -9.252987   3.734432   7.450075 H        1 UNL1     0.2921
     46 H         -4.267416   -3.936313   7.261263 H        1 UNL1     0.2922
     47 H         0.546996   0.74251   2.147708 H        1 UNL1     0.2126
     48 H         1.506923   -1.64554   -0.18805 H        1 UNL1     0.2101
     49 H         -2.209071   0.439236   -0.85385 H        1 UNL1     0.2100
     50 H         -2.085224   -3.875229   -0.544892 H        1 UNL1     0.2102
@<TRIPOS>BOND
     1     1     2    1
     2     1     6    1
     3     2     3    1
     4     3     4    1
     5     3    29    1
     6     3    33    1
     7     4     5    1
     8     5     6    1
     9     5     7    1
    10     5    35    1
    11     7     8    1
    12     8     9   ar
    13     8    13   ar
    14     9    10   ar
    15     9    36    1
    16    10    11   ar
    17    10    26    1
    18    11    12   ar
    19    11    14    1
    20    12    13   ar
    21    12    17    1
    22    13    37    1
    23    14    15    1
    24    14    25    2
    25    15    16    1
    26    15    38    1
    27    15    39    1
    28    16    17    1
    29    16    18    1
    30    16    40    1
    31    18    19   ar
    32    18    23   ar
    33    19    20   ar
    34    19    41    1
    35    20    21   ar
    36    20    42    1
    37    21    22   ar
    38    21    24    1
    39    22    23   ar
    40    22    43    1
    41    23    44    1
    42    24    45    1
    43    26    46    1
    44    27    47    1
    45    28    48    1
    46    29    49    1
    47    30    50    1
    48     1    31    1
    49     1    27    1
    50     2    32    1
    51     2    28    1
    52     4    34    1
    53     4    30    1
