@<TRIPOS>MOLECULE
*****
 50 53 0 0 0
SMALL
GASTEIGER

@<TRIPOS>ATOM
     1 C         -0.774734   -2.009776   0.362481 C.3        1 UNL1     0.1889
     2 C         -0.767112   -0.479067   0.620964 C.3        1 UNL1     0.1342
     3 C         -0.547359   -0.077485   2.08756 C.3        1 UNL1     0.1174
     4 C         -1.185775   -1.058868   3.073679 C.3        1 UNL1     0.1456
     5 C         -0.883059   -2.527432   2.724327 C.3        1 UNL1     0.2326
     6 O         -1.322487   -2.81211   1.398156 O.3        1 UNL1     -0.3076
     7 O         0.486567   -2.901937   2.959253 O.3        1 UNL1     -0.4605
     8 C         1.047156   -2.442364   4.137413 C.ar        1 UNL1     0.1310
     9 C         1.828099   -3.203226   5.014064 C.ar        1 UNL1     0.0226
     10 C         2.366922   -2.64069   6.177303 C.ar        1 UNL1     0.1343
     11 C         2.157414   -1.296001   6.480216 C.ar        1 UNL1     0.1007
     12 C         1.345271   -0.536672   5.633678 C.ar        1 UNL1     0.1389
     13 C         0.801419   -1.103221   4.465484 C.ar        1 UNL1     0.0229
     14 C         2.771935   -0.629135   7.651458 C.2        1 UNL1     0.1740
     15 C         2.623608   0.86322   7.700721 C.3        1 UNL1     0.0520
     16 C         1.216989   1.222965   7.242504 C.3        1 UNL1     0.1322
     17 O         0.984923   0.76552   5.891964 O.3        1 UNL1     -0.4828
     18 C         0.124824   0.832196   8.241103 C.ar        1 UNL1     -0.0067
     19 C         -0.293909   -0.512003   8.318612 C.ar        1 UNL1     -0.0516
     20 C         -1.323078   -0.894828   9.18707 C.ar        1 UNL1     -0.0198
     21 C         -1.945074   0.056177   9.976079 C.ar        1 UNL1     0.1169
     22 C         -1.532311   1.38192   9.946523 C.ar        1 UNL1     -0.0198
     23 C         -0.490704   1.761769   9.09164 C.ar        1 UNL1     -0.0516
     24 O         -2.968938   -0.34731   10.781872 O.3        1 UNL1     -0.5068
     25 O         3.43346   -1.224058   8.498179 O.2        1 UNL1     -0.2917
     26 O         3.11883   -3.437115   6.990891 O.3        1 UNL1     -0.5058
     27 O         0.473434   -2.513648   -0.085823 O.3        1 UNL1     -0.3648
     28 O         -2.039822   0.058271   0.215769 O.3        1 UNL1     -0.3841
     29 O         0.839435   0.146823   2.349519 O.3        1 UNL1     -0.3863
     30 O         -2.617197   -0.867239   3.073042 O.3        1 UNL1     -0.3829
     31 H         -1.4532   -2.181334   -0.48033 H        1 UNL1     0.0937
     32 H         0.0   0.0   0.0 H        1 UNL1     0.0671
     33 H         -1.035118   0.894509   2.245794 H        1 UNL1     0.0649
     34 H         -0.834754   -0.849167   4.090148 H        1 UNL1     0.0683
     35 H         -1.5277   -3.099212   3.40358 H        1 UNL1     0.1085
     36 H         2.073767   -4.238898   4.806333 H        1 UNL1     0.0691
     37 H         0.171536   -0.491116   3.823559 H        1 UNL1     0.0691
     38 H         3.378368   1.293247   7.033683 H        1 UNL1     0.0385
     39 H         2.829006   1.210921   8.718903 H        1 UNL1     0.0385
     40 H         1.169222   2.318167   7.173435 H        1 UNL1     0.0789
     41 H         0.172199   -1.275839   7.703024 H        1 UNL1     0.0623
     42 H         -1.645033   -1.932419   9.229049 H        1 UNL1     0.0654
     43 H         -2.00236   2.132115   10.57116 H        1 UNL1     0.0654
     44 H         -0.186852   2.804079   9.102027 H        1 UNL1     0.0623
     45 H         -3.635661   -0.790044   10.232159 H        1 UNL1     0.2921
     46 H         4.029337   -3.472314   6.657498 H        1 UNL1     0.2922
     47 H         0.808539   -1.975875   -0.816825 H        1 UNL1     0.2126
     48 H         -2.39999   -0.5521   -0.456137 H        1 UNL1     0.2101
     49 H         1.299944   -0.702685   2.439296 H        1 UNL1     0.2100
     50 H         -2.813273   -0.057892   3.58901 H        1 UNL1     0.2102
@<TRIPOS>BOND
     1     1     2    1
     2     1     6    1
     3     2     3    1
     4     3     4    1
     5     3    29    1
     6     3    33    1
     7     4     5    1
     8     5     6    1
     9     5     7    1
    10     5    35    1
    11     7     8    1
    12     8     9   ar
    13     8    13   ar
    14     9    10   ar
    15     9    36    1
    16    10    11   ar
    17    10    26    1
    18    11    12   ar
    19    11    14    1
    20    12    13   ar
    21    12    17    1
    22    13    37    1
    23    14    15    1
    24    14    25    2
    25    15    16    1
    26    15    38    1
    27    15    39    1
    28    16    17    1
    29    16    18    1
    30    16    40    1
    31    18    19   ar
    32    18    23   ar
    33    19    20   ar
    34    19    41    1
    35    20    21   ar
    36    20    42    1
    37    21    22   ar
    38    21    24    1
    39    22    23   ar
    40    22    43    1
    41    23    44    1
    42    24    45    1
    43    26    46    1
    44    27    47    1
    45    28    48    1
    46    29    49    1
    47    30    50    1
    48     1    31    1
    49     1    27    1
    50     2    32    1
    51     2    28    1
    52     4    34    1
    53     4    30    1
