@<TRIPOS>MOLECULE
*****
 50 53 0 0 0
SMALL
GASTEIGER

@<TRIPOS>ATOM
     1 C         -0.325661   -1.365666   1.673232 C.3        1 UNL1     0.1889
     2 C         -0.462736   -0.979007   0.17602 C.3        1 UNL1     0.1342
     3 C         -1.906031   -0.952926   -0.349989 C.3        1 UNL1     0.1174
     4 C         -2.790541   -2.025679   0.290292 C.3        1 UNL1     0.1456
     5 C         -2.631798   -2.085428   1.820519 C.3        1 UNL1     0.2326
     6 O         -1.265551   -2.312808   2.158951 O.3        1 UNL1     -0.3076
     7 O         -3.202256   -0.952595   2.500657 O.3        1 UNL1     -0.4605
     8 C         -3.71675   -1.198215   3.761012 C.ar        1 UNL1     0.1310
     9 C         -4.540009   -2.276039   4.10429 C.ar        1 UNL1     0.0226
     10 C         -4.997481   -2.448221   5.41615 C.ar        1 UNL1     0.1343
     11 C         -4.622954   -1.559066   6.422615 C.ar        1 UNL1     0.1007
     12 C         -3.834762   -0.456054   6.083642 C.ar        1 UNL1     0.1389
     13 C         -3.377075   -0.281686   4.763965 C.ar        1 UNL1     0.0229
     14 C         -5.008458   -1.739881   7.841363 C.2        1 UNL1     0.1740
     15 C         -4.337059   -0.820489   8.818856 C.3        1 UNL1     0.0520
     16 C         -4.258409   0.567739   8.1987 C.3        1 UNL1     0.1322
     17 O         -3.496662   0.538746   6.97152 O.3        1 UNL1     -0.4828
     18 C         -5.613494   1.2707   8.087735 C.ar        1 UNL1     -0.0067
     19 C         -5.687455   2.539703   7.47751 C.ar        1 UNL1     -0.0516
     20 C         -6.902665   3.230742   7.402054 C.ar        1 UNL1     -0.0198
     21 C         -8.047006   2.668035   7.938405 C.ar        1 UNL1     0.1169
     22 C         -8.012525   1.405402   8.515819 C.ar        1 UNL1     -0.0198
     23 C         -6.801066   0.70617   8.574946 C.ar        1 UNL1     -0.0516
     24 O         -9.204656   3.38695   7.880029 O.3        1 UNL1     -0.5068
     25 O         -5.763218   -2.627885   8.22901 O.2        1 UNL1     -0.2917
     26 O         -5.798459   -3.519557   5.684957 O.3        1 UNL1     -0.5058
     27 O         -0.215011   -0.246634   2.538282 O.3        1 UNL1     -0.3648
     28 O         0.263002   -1.940974   -0.611781 O.3        1 UNL1     -0.3841
     29 O         -2.461474   0.359295   -0.241864 O.3        1 UNL1     -0.3863
     30 O         -2.447058   -3.314868   -0.262609 O.3        1 UNL1     -0.3829
     31 H         0.634912   -1.882158   1.776259 H        1 UNL1     0.0937
     32 H         0.0   0.0   0.0 H        1 UNL1     0.0671
     33 H         -1.874331   -1.168492   -1.427136 H        1 UNL1     0.0649
     34 H         -3.84163   -1.840454   0.042693 H        1 UNL1     0.0683
     35 H         -3.186191   -2.987276   2.108957 H        1 UNL1     0.1085
     36 H         -4.820701   -3.032561   3.379716 H        1 UNL1     0.0691
     37 H         -2.765578   0.585936   4.525642 H        1 UNL1     0.0691
     38 H         -3.337449   -1.221421   9.017752 H        1 UNL1     0.0385
     39 H         -4.899771   -0.82289   9.758605 H        1 UNL1     0.0385
     40 H         -3.661839   1.192167   8.87746 H        1 UNL1     0.0789
     41 H         -4.801631   3.006889   7.057148 H        1 UNL1     0.0623
     42 H         -6.94446   4.213808   6.939617 H        1 UNL1     0.0654
     43 H         -8.905686   0.948944   8.925478 H        1 UNL1     0.0654
     44 H         -6.812855   -0.282472   9.023604 H        1 UNL1     0.0623
     45 H         -9.084945   4.203166   8.392063 H        1 UNL1     0.2921
     46 H         -5.411331   -4.039944   6.406581 H        1 UNL1     0.2922
     47 H         0.514435   0.323152   2.257012 H        1 UNL1     0.2126
     48 H         1.208336   -1.821754   -0.397625 H        1 UNL1     0.2101
     49 H         -2.031005   0.953249   -0.877245 H        1 UNL1     0.2100
     50 H         -2.689995   -3.310332   -1.211648 H        1 UNL1     0.2102
@<TRIPOS>BOND
     1     1     2    1
     2     1     6    1
     3     2     3    1
     4     3     4    1
     5     3    29    1
     6     3    33    1
     7     4     5    1
     8     5     6    1
     9     5     7    1
    10     5    35    1
    11     7     8    1
    12     8     9   ar
    13     8    13   ar
    14     9    10   ar
    15     9    36    1
    16    10    11   ar
    17    10    26    1
    18    11    12   ar
    19    11    14    1
    20    12    13   ar
    21    12    17    1
    22    13    37    1
    23    14    15    1
    24    14    25    2
    25    15    16    1
    26    15    38    1
    27    15    39    1
    28    16    17    1
    29    16    18    1
    30    16    40    1
    31    18    19   ar
    32    18    23   ar
    33    19    20   ar
    34    19    41    1
    35    20    21   ar
    36    20    42    1
    37    21    22   ar
    38    21    24    1
    39    22    23   ar
    40    22    43    1
    41    23    44    1
    42    24    45    1
    43    26    46    1
    44    27    47    1
    45    28    48    1
    46    29    49    1
    47    30    50    1
    48     1    31    1
    49     1    27    1
    50     2    32    1
    51     2    28    1
    52     4    34    1
    53     4    30    1
