@<TRIPOS>MOLECULE
*****
 50 53 0 0 0
SMALL
GASTEIGER

@<TRIPOS>ATOM
     1 C         -0.343159   -1.386637   1.652357 C.3        1 UNL1     0.1889
     2 C         -0.473735   -0.97635   0.160863 C.3        1 UNL1     0.1342
     3 C         -1.915868   -0.92658   -0.366623 C.3        1 UNL1     0.1174
     4 C         -2.813077   -1.998892   0.256498 C.3        1 UNL1     0.1456
     5 C         -2.657288   -2.083053   1.78588 C.3        1 UNL1     0.2326
     6 O         -1.294132   -2.330461   2.122722 O.3        1 UNL1     -0.3076
     7 O         -3.216272   -0.954206   2.481985 O.3        1 UNL1     -0.4605
     8 C         -3.73532   -1.212791   3.737872 C.ar        1 UNL1     0.1310
     9 C         -4.565276   -2.290335   4.06555 C.ar        1 UNL1     0.0226
     10 C         -5.027037   -2.476443   5.374001 C.ar        1 UNL1     0.1343
     11 C         -4.650288   -1.602016   6.392469 C.ar        1 UNL1     0.1007
     12 C         -3.855273   -0.499151   6.069324 C.ar        1 UNL1     0.1389
     13 C         -3.393266   -0.310759   4.753084 C.ar        1 UNL1     0.0229
     14 C         -5.040404   -1.798488   7.807871 C.2        1 UNL1     0.1740
     15 C         -4.366551   -0.89508   8.79849 C.3        1 UNL1     0.0520
     16 C         -4.278801   0.500359   8.195989 C.3        1 UNL1     0.1322
     17 O         -3.514075   0.482595   6.970449 O.3        1 UNL1     -0.4828
     18 C         -5.629774   1.212018   8.090463 C.ar        1 UNL1     -0.0067
     19 C         -5.742532   2.369128   7.292593 C.ar        1 UNL1     -0.0516
     20 C         -6.951173   3.071004   7.211849 C.ar        1 UNL1     -0.0198
     21 C         -8.04981   2.631161   7.928342 C.ar        1 UNL1     0.1169
     22 C         -7.979223   1.476149   8.696329 C.ar        1 UNL1     -0.0198
     23 C         -6.775873   0.763685   8.76266 C.ar        1 UNL1     -0.0516
     24 O         -9.199264   3.361756   7.854946 O.3        1 UNL1     -0.5068
     25 O         -5.80095   -2.687158   8.182466 O.2        1 UNL1     -0.2917
     26 O         -5.834487   -3.546688   5.627351 O.3        1 UNL1     -0.5058
     27 O         -0.221505   -0.281832   2.534056 O.3        1 UNL1     -0.3648
     28 O         0.242559   -1.934476   -0.640152 O.3        1 UNL1     -0.3841
     29 O         -2.45701   0.389934   -0.239786 O.3        1 UNL1     -0.3863
     30 O         -2.482964   -3.283453   -0.315007 O.3        1 UNL1     -0.3829
     31 H         0.611521   -1.91515   1.74899 H        1 UNL1     0.0937
     32 H         0.0   0.0   0.0 H        1 UNL1     0.0671
     33 H         -1.88493   -1.126498   -1.446806 H        1 UNL1     0.0649
     34 H         -3.861694   -1.798451   0.010273 H        1 UNL1     0.0683
     35 H         -3.221995   -2.982914   2.060171 H        1 UNL1     0.1085
     36 H         -4.848197   -3.036183   3.330848 H        1 UNL1     0.0691
     37 H         -2.776474   0.556439   4.527189 H        1 UNL1     0.0691
     38 H         -3.369638   -1.303906   8.994838 H        1 UNL1     0.0385
     39 H         -4.931678   -0.90619   9.736726 H        1 UNL1     0.0385
     40 H         -3.680605   1.112979   8.884014 H        1 UNL1     0.0789
     41 H         -4.892166   2.739966   6.727785 H        1 UNL1     0.0623
     42 H         -7.022168   3.968619   6.602539 H        1 UNL1     0.0654
     43 H         -8.837721   1.114385   9.249519 H        1 UNL1     0.0654
     44 H         -6.759542   -0.14022   9.363936 H        1 UNL1     0.0623
     45 H         -9.024466   4.245676   8.216673 H        1 UNL1     0.2921
     46 H         -5.452032   -4.078172   6.343357 H        1 UNL1     0.2922
     47 H         0.514582   0.283988   2.26224 H        1 UNL1     0.2126
     48 H         1.188825   -1.828863   -0.422992 H        1 UNL1     0.2101
     49 H         -2.019087   0.988459   -0.865714 H        1 UNL1     0.2100
     50 H         -2.745249   -3.269937   -1.258796 H        1 UNL1     0.2102
@<TRIPOS>BOND
     1     1     2    1
     2     1     6    1
     3     2     3    1
     4     3     4    1
     5     3    29    1
     6     3    33    1
     7     4     5    1
     8     5     6    1
     9     5     7    1
    10     5    35    1
    11     7     8    1
    12     8     9   ar
    13     8    13   ar
    14     9    10   ar
    15     9    36    1
    16    10    11   ar
    17    10    26    1
    18    11    12   ar
    19    11    14    1
    20    12    13   ar
    21    12    17    1
    22    13    37    1
    23    14    15    1
    24    14    25    2
    25    15    16    1
    26    15    38    1
    27    15    39    1
    28    16    17    1
    29    16    18    1
    30    16    40    1
    31    18    19   ar
    32    18    23   ar
    33    19    20   ar
    34    19    41    1
    35    20    21   ar
    36    20    42    1
    37    21    22   ar
    38    21    24    1
    39    22    23   ar
    40    22    43    1
    41    23    44    1
    42    24    45    1
    43    26    46    1
    44    27    47    1
    45    28    48    1
    46    29    49    1
    47    30    50    1
    48     1    31    1
    49     1    27    1
    50     2    32    1
    51     2    28    1
    52     4    34    1
    53     4    30    1
