@<TRIPOS>MOLECULE
*****
 50 53 0 0 0
SMALL
GASTEIGER

@<TRIPOS>ATOM
     1 C         1.236918   -0.023711   -1.800077 C.3        1 UNL1     0.1889
     2 C         -0.134279   0.105158   -1.083731 C.3        1 UNL1     0.1342
     3 C         -1.200897   -0.894781   -1.555868 C.3        1 UNL1     0.1174
     4 C         -1.098002   -1.210931   -3.05005 C.3        1 UNL1     0.1456
     5 C         0.346564   -1.507255   -3.492525 C.3        1 UNL1     0.2326
     6 O         1.190381   -0.405002   -3.167134 O.3        1 UNL1     -0.3076
     7 O         0.84783   -2.766133   -3.007468 O.3        1 UNL1     -0.4605
     8 C         1.153285   -3.709276   -3.972199 C.ar        1 UNL1     0.1310
     9 C         0.999231   -3.536377   -5.351936 C.ar        1 UNL1     0.0226
     10 C         1.354135   -4.548047   -6.252197 C.ar        1 UNL1     0.1343
     11 C         1.894516   -5.749372   -5.79542 C.ar        1 UNL1     0.1007
     12 C         2.014849   -5.949505   -4.417649 C.ar        1 UNL1     0.1389
     13 C         1.655455   -4.933138   -3.512517 C.ar        1 UNL1     0.0229
     14 C         2.364403   -6.818905   -6.706167 C.2        1 UNL1     0.1740
     15 C         3.119095   -7.940724   -6.05539 C.3        1 UNL1     0.0520
     16 C         2.438342   -8.277691   -4.735926 C.3        1 UNL1     0.1322
     17 O         2.432943   -7.132944   -3.85468 O.3        1 UNL1     -0.4828
     18 C         1.077033   -8.957641   -4.900939 C.ar        1 UNL1     -0.0067
     19 C         0.757004   -10.070959   -4.096998 C.ar        1 UNL1     -0.0516
     20 C         -0.459787   -10.745058   -4.25502 C.ar        1 UNL1     -0.0198
     21 C         -1.359829   -10.321125   -5.216286 C.ar        1 UNL1     0.1169
     22 C         -1.087569   -9.207611   -6.000378 C.ar        1 UNL1     -0.0198
     23 C         0.121196   -8.522117   -5.829965 C.ar        1 UNL1     -0.0516
     24 O         -2.518142   -11.025383   -5.367052 O.3        1 UNL1     -0.5068
     25 O         2.229532   -6.775665   -7.926177 O.2        1 UNL1     -0.2917
     26 O         1.177984   -4.316693   -7.58525 O.3        1 UNL1     -0.5058
     27 O         2.184041   -0.791126   -1.074253 O.3        1 UNL1     -0.3648
     28 O         -0.651162   1.427466   -1.322556 O.3        1 UNL1     -0.3841
     29 O         -1.192462   -2.068038   -0.740067 O.3        1 UNL1     -0.3863
     30 O         -1.593853   -0.085779   -3.807582 O.3        1 UNL1     -0.3829
     31 H         1.670302   0.981973   -1.829357 H        1 UNL1     0.0937
     32 H         0.0   0.0   0.0 H        1 UNL1     0.0671
     33 H         -2.186048   -0.434936   -1.395433 H        1 UNL1     0.0649
     34 H         -1.734524   -2.068213   -3.295623 H        1 UNL1     0.0683
     35 H         0.284579   -1.549226   -4.587183 H        1 UNL1     0.1085
     36 H         0.637165   -2.604839   -5.772965 H        1 UNL1     0.0691
     37 H         1.757734   -5.11426   -2.444703 H        1 UNL1     0.0691
     38 H         4.146779   -7.598414   -5.89348 H        1 UNL1     0.0385
     39 H         3.147364   -8.797414   -6.737344 H        1 UNL1     0.0385
     40 H         3.071384   -9.01516   -4.224147 H        1 UNL1     0.0789
     41 H         1.450502   -10.428926   -3.341636 H        1 UNL1     0.0623
     42 H         -0.689859   -11.609494   -3.637097 H        1 UNL1     0.0654
     43 H         -1.791825   -8.857969   -6.745821 H        1 UNL1     0.0654
     44 H         0.296388   -7.649968   -6.452468 H        1 UNL1     0.0623
     45 H         -3.031113   -10.621785   -6.085861 H        1 UNL1     0.2921
     46 H         2.027718   -4.075649   -7.986825 H        1 UNL1     0.2922
     47 H         3.075448   -0.442322   -1.214212 H        1 UNL1     0.2126
     48 H         -0.651657   1.88739   -0.461044 H        1 UNL1     0.2101
     49 H         -2.06856   -2.485267   -0.752974 H        1 UNL1     0.2100
     50 H         -1.850728   0.615133   -3.173192 H        1 UNL1     0.2102
@<TRIPOS>BOND
     1     1     2    1
     2     1     6    1
     3     2     3    1
     4     3     4    1
     5     3    29    1
     6     3    33    1
     7     4     5    1
     8     5     6    1
     9     5     7    1
    10     5    35    1
    11     7     8    1
    12     8     9   ar
    13     8    13   ar
    14     9    10   ar
    15     9    36    1
    16    10    11   ar
    17    10    26    1
    18    11    12   ar
    19    11    14    1
    20    12    13   ar
    21    12    17    1
    22    13    37    1
    23    14    15    1
    24    14    25    2
    25    15    16    1
    26    15    38    1
    27    15    39    1
    28    16    17    1
    29    16    18    1
    30    16    40    1
    31    18    19   ar
    32    18    23   ar
    33    19    20   ar
    34    19    41    1
    35    20    21   ar
    36    20    42    1
    37    21    22   ar
    38    21    24    1
    39    22    23   ar
    40    22    43    1
    41    23    44    1
    42    24    45    1
    43    26    46    1
    44    27    47    1
    45    28    48    1
    46    29    49    1
    47    30    50    1
    48     1    31    1
    49     1    27    1
    50     2    32    1
    51     2    28    1
    52     4    34    1
    53     4    30    1
