@<TRIPOS>MOLECULE
*****
 50 53 0 0 0
SMALL
GASTEIGER

@<TRIPOS>ATOM
     1 C         -0.232914   -1.276178   1.757249 C.3        1 UNL1     0.1889
     2 C         -0.408131   -0.989229   0.241697 C.3        1 UNL1     0.1342
     3 C         -1.856962   -1.070524   -0.263027 C.3        1 UNL1     0.1174
     4 C         -2.675741   -2.146858   0.454067 C.3        1 UNL1     0.1456
     5 C         -2.495795   -2.104809   1.982535 C.3        1 UNL1     0.2326
     6 O         -1.115485   -2.239619   2.313347 O.3        1 UNL1     -0.3076
     7 O         -3.117255   -0.963869   2.601701 O.3        1 UNL1     -0.4605
     8 C         -3.592394   -1.155306   3.886661 C.ar        1 UNL1     0.1310
     9 C         -4.345534   -2.25298   4.317 C.ar        1 UNL1     0.0226
     10 C         -4.766987   -2.364691   5.647339 C.ar        1 UNL1     0.1343
     11 C         -4.424899   -1.392193   6.585989 C.ar        1 UNL1     0.1007
     12 C         -3.708127   -0.271113   6.159138 C.ar        1 UNL1     0.1389
     13 C         -3.286736   -0.157721   4.820855 C.ar        1 UNL1     0.0229
     14 C         -4.771961   -1.501497   8.02187 C.2        1 UNL1     0.1740
     15 C         -4.135845   -0.484094   8.922868 C.3        1 UNL1     0.0520
     16 C         -4.14913   0.862975   8.213514 C.3        1 UNL1     0.1322
     17 O         -3.410759   0.796862   6.973551 O.3        1 UNL1     -0.4828
     18 C         -5.544288   1.48001   8.088914 C.ar        1 UNL1     -0.0067
     19 C         -5.973977   1.974179   6.840163 C.ar        1 UNL1     -0.0516
     20 C         -7.225008   2.587232   6.702147 C.ar        1 UNL1     -0.0198
     21 C         -8.050676   2.718504   7.804357 C.ar        1 UNL1     0.1169
     22 C         -7.669475   2.211926   9.040036 C.ar        1 UNL1     -0.0198
     23 C         -6.426232   1.582345   9.174316 C.ar        1 UNL1     -0.0516
     24 O         -9.24577   3.354951   7.639778 O.3        1 UNL1     -0.5068
     25 O         -5.466791   -2.403317   8.482757 O.2        1 UNL1     -0.2917
     26 O         -5.499695   -3.459505   6.002452 O.3        1 UNL1     -0.5058
     27 O         -0.171329   -0.102224   2.551495 O.3        1 UNL1     -0.3648
     28 O         0.358048   -1.958328   -0.497573 O.3        1 UNL1     -0.3841
     29 O         -2.479754   0.215118   -0.22581 O.3        1 UNL1     -0.3863
     30 O         -2.271127   -3.447717   -0.025249 O.3        1 UNL1     -0.3829
     31 H         0.754813   -1.734666   1.876677 H        1 UNL1     0.0937
     32 H         0.0   0.0   0.0 H        1 UNL1     0.0671
     33 H         -1.826761   -1.349442   -1.325578 H        1 UNL1     0.0649
     34 H         -3.738042   -2.032104   0.211684 H        1 UNL1     0.0683
     35 H         -2.998191   -3.015047   2.333169 H        1 UNL1     0.1085
     36 H         -4.596157   -3.069691   3.64895 H        1 UNL1     0.0691
     37 H         -2.730856   0.725482   4.513538 H        1 UNL1     0.0691
     38 H         -3.111184   -0.814448   9.124024 H        1 UNL1     0.0385
     39 H         -4.679279   -0.456821   9.873508 H        1 UNL1     0.0385
     40 H         -3.576495   1.562831   8.837061 H        1 UNL1     0.0789
     41 H         -5.340545   1.891494   5.961768 H        1 UNL1     0.0623
     42 H         -7.540004   2.974921   5.736493 H        1 UNL1     0.0654
     43 H         -8.314632   2.29593   9.906422 H        1 UNL1     0.0654
     44 H         -6.165214   1.18884   10.152001 H        1 UNL1     0.0623
     45 H         -9.07153   4.261943   7.340241 H        1 UNL1     0.2921
     46 H         -5.056953   -3.922656   6.731069 H        1 UNL1     0.2922
     47 H         0.537248   0.477144   2.238268 H        1 UNL1     0.2126
     48 H         1.29112   -1.834872   -0.237056 H        1 UNL1     0.2101
     49 H         -2.082873   0.793606   -0.896356 H        1 UNL1     0.2100
     50 H         -2.520191   -3.511604   -0.970553 H        1 UNL1     0.2102
@<TRIPOS>BOND
     1     1     2    1
     2     1     6    1
     3     2     3    1
     4     3     4    1
     5     3    29    1
     6     3    33    1
     7     4     5    1
     8     5     6    1
     9     5     7    1
    10     5    35    1
    11     7     8    1
    12     8     9   ar
    13     8    13   ar
    14     9    10   ar
    15     9    36    1
    16    10    11   ar
    17    10    26    1
    18    11    12   ar
    19    11    14    1
    20    12    13   ar
    21    12    17    1
    22    13    37    1
    23    14    15    1
    24    14    25    2
    25    15    16    1
    26    15    38    1
    27    15    39    1
    28    16    17    1
    29    16    18    1
    30    16    40    1
    31    18    19   ar
    32    18    23   ar
    33    19    20   ar
    34    19    41    1
    35    20    21   ar
    36    20    42    1
    37    21    22   ar
    38    21    24    1
    39    22    23   ar
    40    22    43    1
    41    23    44    1
    42    24    45    1
    43    26    46    1
    44    27    47    1
    45    28    48    1
    46    29    49    1
    47    30    50    1
    48     1    31    1
    49     1    27    1
    50     2    32    1
    51     2    28    1
    52     4    34    1
    53     4    30    1
