@<TRIPOS>MOLECULE
*****
 50 53 0 0 0
SMALL
GASTEIGER

@<TRIPOS>ATOM
     1 C         1.046505   -1.754922   -0.771933 C.3        1 UNL1     0.1889
     2 C         -0.219175   -0.866309   -0.636422 C.3        1 UNL1     0.1342
     3 C         -1.456386   -1.592182   -0.086075 C.3        1 UNL1     0.1174
     4 C         -1.540127   -3.051115   -0.54173 C.3        1 UNL1     0.1456
     5 C         -0.200178   -3.794267   -0.391314 C.3        1 UNL1     0.2326
     6 O         0.818207   -3.112536   -1.120013 O.3        1 UNL1     -0.3076
     7 O         0.160814   -4.053866   0.977486 O.3        1 UNL1     -0.4605
     8 C         0.892443   -5.205904   1.20344 C.ar        1 UNL1     0.1310
     9 C         0.61077   -6.464246   0.660727 C.ar        1 UNL1     0.0226
     10 C         1.423996   -7.569904   0.936564 C.ar        1 UNL1     0.1343
     11 C         2.55337   -7.438664   1.743491 C.ar        1 UNL1     0.1007
     12 C         2.821732   -6.196308   2.324281 C.ar        1 UNL1     0.1389
     13 C         2.002386   -5.085331   2.048903 C.ar        1 UNL1     0.0229
     14 C         3.493914   -8.553915   1.999903 C.2        1 UNL1     0.1740
     15 C         4.766851   -8.18141   2.70163 C.3        1 UNL1     0.0520
     16 C         4.438766   -7.167025   3.788525 C.3        1 UNL1     0.1322
     17 O         3.843648   -5.980028   3.219366 O.3        1 UNL1     -0.4828
     18 C         3.667791   -7.75862   4.971038 C.ar        1 UNL1     -0.0067
     19 C         2.51225   -7.102294   5.442392 C.ar        1 UNL1     -0.0516
     20 C         1.810869   -7.59037   6.55136 C.ar        1 UNL1     -0.0198
     21 C         2.258036   -8.727131   7.200701 C.ar        1 UNL1     0.1169
     22 C         3.373445   -9.414368   6.739826 C.ar        1 UNL1     -0.0198
     23 C         4.064357   -8.936926   5.619671 C.ar        1 UNL1     -0.0516
     24 O         1.571109   -9.151328   8.30006 O.3        1 UNL1     -0.5068
     25 O         3.306104   -9.701316   1.604072 O.2        1 UNL1     -0.2917
     26 O         1.093781   -8.769599   0.376855 O.3        1 UNL1     -0.5058
     27 O         1.939159   -1.638364   0.324593 O.3        1 UNL1     -0.3648
     28 O         -0.56344   -0.36106   -1.939845 O.3        1 UNL1     -0.3841
     29 O         -1.537845   -1.450213   1.333552 O.3        1 UNL1     -0.3863
     30 O         -1.940333   -3.091989   -1.928761 O.3        1 UNL1     -0.3829
     31 H         1.613438   -1.364   -1.623898 H        1 UNL1     0.0937
     32 H         0.0   0.0   0.0 H        1 UNL1     0.0671
     33 H         -2.346909   -1.084068   -0.481687 H        1 UNL1     0.0649
     34 H         -2.312005   -3.577839   0.030256 H        1 UNL1     0.0683
     35 H         -0.370003   -4.751453   -0.900071 H        1 UNL1     0.1085
     36 H         -0.220225   -6.619188   -0.018656 H        1 UNL1     0.0691
     37 H         2.232172   -4.129298   2.514405 H        1 UNL1     0.0691
     38 H         5.444229   -7.754443   1.954379 H        1 UNL1     0.0385
     39 H         5.231504   -9.086764   3.106858 H        1 UNL1     0.0385
     40 H         5.393467   -6.82153   4.20769 H        1 UNL1     0.0789
     41 H         2.146129   -6.20302   4.955655 H        1 UNL1     0.0623
     42 H         0.928056   -7.068612   6.912497 H        1 UNL1     0.0654
     43 H         3.723539   -10.314033   7.231706 H        1 UNL1     0.0654
     44 H         4.92539   -9.504832   5.280628 H        1 UNL1     0.0623
     45 H         1.596733   -8.447328   8.968225 H        1 UNL1     0.2921
     46 H         1.843719   -9.102278   -0.141151 H        1 UNL1     0.2922
     47 H         2.193488   -0.713796   0.452465 H        1 UNL1     0.2126
     48 H         0.194314   0.176683   -2.240469 H        1 UNL1     0.2101
     49 H         -1.746757   -0.530396   1.561777 H        1 UNL1     0.2100
     50 H         -2.853654   -2.742886   -1.989456 H        1 UNL1     0.2102
@<TRIPOS>BOND
     1     1     2    1
     2     1     6    1
     3     2     3    1
     4     3     4    1
     5     3    29    1
     6     3    33    1
     7     4     5    1
     8     5     6    1
     9     5     7    1
    10     5    35    1
    11     7     8    1
    12     8     9   ar
    13     8    13   ar
    14     9    10   ar
    15     9    36    1
    16    10    11   ar
    17    10    26    1
    18    11    12   ar
    19    11    14    1
    20    12    13   ar
    21    12    17    1
    22    13    37    1
    23    14    15    1
    24    14    25    2
    25    15    16    1
    26    15    38    1
    27    15    39    1
    28    16    17    1
    29    16    18    1
    30    16    40    1
    31    18    19   ar
    32    18    23   ar
    33    19    20   ar
    34    19    41    1
    35    20    21   ar
    36    20    42    1
    37    21    22   ar
    38    21    24    1
    39    22    23   ar
    40    22    43    1
    41    23    44    1
    42    24    45    1
    43    26    46    1
    44    27    47    1
    45    28    48    1
    46    29    49    1
    47    30    50    1
    48     1    31    1
    49     1    27    1
    50     2    32    1
    51     2    28    1
    52     4    34    1
    53     4    30    1
