@<TRIPOS>MOLECULE
*****
 50 53 0 0 0
SMALL
GASTEIGER

@<TRIPOS>ATOM
     1 C         -0.326591   -1.366761   1.672157 C.3        1 UNL1     0.1889
     2 C         -0.462211   -0.979441   0.174982 C.3        1 UNL1     0.1342
     3 C         -1.904911   -0.954166   -0.352693 C.3        1 UNL1     0.1174
     4 C         -2.789368   -2.027903   0.286012 C.3        1 UNL1     0.1456
     5 C         -2.632361   -2.088314   1.816392 C.3        1 UNL1     0.2326
     6 O         -1.26634   -2.31485   2.156299 O.3        1 UNL1     -0.3076
     7 O         -3.204455   -0.956253   2.496441 O.3        1 UNL1     -0.4605
     8 C         -3.720232   -1.202899   3.756071 C.ar        1 UNL1     0.1310
     9 C         -4.543087   -2.28151   4.097842 C.ar        1 UNL1     0.0226
     10 C         -5.001957   -2.454701   5.409081 C.ar        1 UNL1     0.1343
     11 C         -4.629264   -1.56578   6.416434 C.ar        1 UNL1     0.1007
     12 C         -3.8415   -0.46201   6.07894 C.ar        1 UNL1     0.1389
     13 C         -3.382407   -0.286628   4.759885 C.ar        1 UNL1     0.0229
     14 C         -5.016284   -1.747606   7.83464 C.2        1 UNL1     0.1740
     15 C         -4.346709   -0.828213   8.813381 C.3        1 UNL1     0.0520
     16 C         -4.268371   0.560389   8.194024 C.3        1 UNL1     0.1322
     17 O         -3.505174   0.532589   6.967718 O.3        1 UNL1     -0.4828
     18 C         -5.62385   1.262398   8.081839 C.ar        1 UNL1     -0.0067
     19 C         -5.698046   2.531657   7.472174 C.ar        1 UNL1     -0.0516
     20 C         -6.913681   3.221829   7.395655 C.ar        1 UNL1     -0.0198
     21 C         -8.058226   2.657997   7.930387 C.ar        1 UNL1     0.1169
     22 C         -8.023477   1.395096   8.507198 C.ar        1 UNL1     -0.0198
     23 C         -6.811566   0.696736   8.567379 C.ar        1 UNL1     -0.0516
     24 O         -9.216342   3.37608   7.871029 O.3        1 UNL1     -0.5068
     25 O         -5.770834   -2.636369   8.220956 O.2        1 UNL1     -0.2917
     26 O         -5.802449   -3.52677   5.676409 O.3        1 UNL1     -0.5058
     27 O         -0.217782   -0.248088   2.537904 O.3        1 UNL1     -0.3648
     28 O         0.26516   -1.940466   -0.612462 O.3        1 UNL1     -0.3841
     29 O         -2.461458   0.357586   -0.244547 O.3        1 UNL1     -0.3863
     30 O         -2.444281   -3.316554   -0.267146 O.3        1 UNL1     -0.3829
     31 H         0.634246   -1.88259   1.776039 H        1 UNL1     0.0937
     32 H         0.0   0.0   0.0 H        1 UNL1     0.0671
     33 H         -1.871798   -1.169159   -1.429912 H        1 UNL1     0.0649
     34 H         -3.840305   -1.843334   0.037283 H        1 UNL1     0.0683
     35 H         -3.186418   -2.990722   2.103725 H        1 UNL1     0.1085
     36 H         -4.822372   -3.037871   3.372557 H        1 UNL1     0.0691
     37 H         -2.77128   0.58157   4.522717 H        1 UNL1     0.0691
     38 H         -3.347032   -1.228502   9.013237 H        1 UNL1     0.0385
     39 H         -4.910513   -0.831512   9.752473 H        1 UNL1     0.0385
     40 H         -3.673057   1.184914   8.873796 H        1 UNL1     0.0789
     41 H         -4.812081   2.999716   7.053082 H        1 UNL1     0.0623
     42 H         -6.95567   4.205099   6.933671 H        1 UNL1     0.0654
     43 H         -8.916774   0.937764   8.915584 H        1 UNL1     0.0654
     44 H         -6.823141   -0.292143   9.01552 H        1 UNL1     0.0623
     45 H         -9.097836   4.192124   8.383617 H        1 UNL1     0.2921
     46 H         -5.415774   -4.047237   6.398219 H        1 UNL1     0.2922
     47 H         0.511567   0.322384   2.257774 H        1 UNL1     0.2126
     48 H         1.210155   -1.820651   -0.397145 H        1 UNL1     0.2101
     49 H         -2.030692   0.952184   -0.879124 H        1 UNL1     0.2100
     50 H         -2.706855   -3.319638   -1.210946 H        1 UNL1     0.2102
@<TRIPOS>BOND
     1     1     2    1
     2     1     6    1
     3     2     3    1
     4     3     4    1
     5     3    29    1
     6     3    33    1
     7     4     5    1
     8     5     6    1
     9     5     7    1
    10     5    35    1
    11     7     8    1
    12     8     9   ar
    13     8    13   ar
    14     9    10   ar
    15     9    36    1
    16    10    11   ar
    17    10    26    1
    18    11    12   ar
    19    11    14    1
    20    12    13   ar
    21    12    17    1
    22    13    37    1
    23    14    15    1
    24    14    25    2
    25    15    16    1
    26    15    38    1
    27    15    39    1
    28    16    17    1
    29    16    18    1
    30    16    40    1
    31    18    19   ar
    32    18    23   ar
    33    19    20   ar
    34    19    41    1
    35    20    21   ar
    36    20    42    1
    37    21    22   ar
    38    21    24    1
    39    22    23   ar
    40    22    43    1
    41    23    44    1
    42    24    45    1
    43    26    46    1
    44    27    47    1
    45    28    48    1
    46    29    49    1
    47    30    50    1
    48     1    31    1
    49     1    27    1
    50     2    32    1
    51     2    28    1
    52     4    34    1
    53     4    30    1
