@<TRIPOS>MOLECULE
*****
 50 53 0 0 0
SMALL
GASTEIGER

@<TRIPOS>ATOM
     1 C         -0.35033   -1.338476   1.690134 C.3        1 UNL1     0.1889
     2 C         -0.471587   -0.972864   0.186284 C.3        1 UNL1     0.1342
     3 C         -1.91006   -0.943844   -0.352621 C.3        1 UNL1     0.1174
     4 C         -2.8081   -2.000498   0.295549 C.3        1 UNL1     0.1456
     5 C         -2.662999   -2.03892   1.827813 C.3        1 UNL1     0.2326
     6 O         -1.301468   -2.271399   2.181444 O.3        1 UNL1     -0.3076
     7 O         -3.230757   -0.892023   2.486296 O.3        1 UNL1     -0.4605
     8 C         -3.755379   -1.114688   3.746741 C.ar        1 UNL1     0.1310
     9 C         -4.58788   -2.181788   4.101057 C.ar        1 UNL1     0.0226
     10 C         -5.055359   -2.330583   5.41225 C.ar        1 UNL1     0.1343
     11 C         -4.681961   -1.428227   6.407322 C.ar        1 UNL1     0.1007
     12 C         -3.884392   -0.335654   6.056677 C.ar        1 UNL1     0.1389
     13 C         -3.416631   -0.184796   4.737635 C.ar        1 UNL1     0.0229
     14 C         -5.078257   -1.584443   7.826018 C.2        1 UNL1     0.1740
     15 C         -4.407609   -0.654188   8.793699 C.3        1 UNL1     0.0520
     16 C         -4.315802   0.723671   8.152581 C.3        1 UNL1     0.1322
     17 O         -3.545933   0.670713   6.931284 O.3        1 UNL1     -0.4828
     18 C         -5.665545   1.433388   8.02135 C.ar        1 UNL1     -0.0067
     19 C         -6.018292   2.028931   6.792891 C.ar        1 UNL1     -0.0516
     20 C         -7.224017   2.726469   6.652778 C.ar        1 UNL1     -0.0198
     21 C         -8.080244   2.841597   7.733262 C.ar        1 UNL1     0.1169
     22 C         -7.776131   2.237531   8.946299 C.ar        1 UNL1     -0.0198
     23 C         -6.579038   1.524245   9.081383 C.ar        1 UNL1     -0.0516
     24 O         -9.227778   3.560558   7.569979 O.3        1 UNL1     -0.5068
     25 O         -5.841341   -2.461492   8.222216 O.2        1 UNL1     -0.2917
     26 O         -5.865032   -3.392499   5.692158 O.3        1 UNL1     -0.5058
     27 O         -0.23872   -0.207698   2.539647 O.3        1 UNL1     -0.3648
     28 O         0.253653   -1.951649   -0.580992 O.3        1 UNL1     -0.3841
     29 O         -2.456526   0.373897   -0.268562 O.3        1 UNL1     -0.3863
     30 O         -2.469575   -3.30018   -0.235408 O.3        1 UNL1     -0.3829
     31 H         0.605407   -1.860489   1.809085 H        1 UNL1     0.0937
     32 H         0.0   0.0   0.0 H        1 UNL1     0.0671
     33 H         -1.870704   -1.175449   -1.426181 H        1 UNL1     0.0649
     34 H         -3.855593   -1.811163   0.036104 H        1 UNL1     0.0683
     35 H         -3.226626   -2.932305   2.124571 H        1 UNL1     0.1085
     36 H         -4.868509   -2.947727   3.38642 H        1 UNL1     0.0691
     37 H         -2.797951   0.67511   4.490069 H        1 UNL1     0.0691
     38 H         -3.411978   -1.058295   9.005697 H        1 UNL1     0.0385
     39 H         -4.976701   -0.638364   9.729468 H        1 UNL1     0.0385
     40 H         -3.719849   1.354818   8.825645 H        1 UNL1     0.0789
     41 H         -5.359119   1.960568   5.932387 H        1 UNL1     0.0623
     42 H         -7.479222   3.191445   5.703737 H        1 UNL1     0.0654
     43 H         -8.44648   2.308677   9.794521 H        1 UNL1     0.0654
     44 H         -6.37847   1.056121   10.040277 H        1 UNL1     0.0623
     45 H         -8.987963   4.473517   7.342577 H        1 UNL1     0.2921
     46 H         -5.47494   -3.916502   6.409557 H        1 UNL1     0.2922
     47 H         0.50422   0.346776   2.263139 H        1 UNL1     0.2126
     48 H         1.189289   -1.882314   -0.309864 H        1 UNL1     0.2101
     49 H         -2.015904   0.955331   -0.908547 H        1 UNL1     0.2100
     50 H         -2.704286   -3.307799   -1.186495 H        1 UNL1     0.2102
@<TRIPOS>BOND
     1     1     2    1
     2     1     6    1
     3     2     3    1
     4     3     4    1
     5     3    29    1
     6     3    33    1
     7     4     5    1
     8     5     6    1
     9     5     7    1
    10     5    35    1
    11     7     8    1
    12     8     9   ar
    13     8    13   ar
    14     9    10   ar
    15     9    36    1
    16    10    11   ar
    17    10    26    1
    18    11    12   ar
    19    11    14    1
    20    12    13   ar
    21    12    17    1
    22    13    37    1
    23    14    15    1
    24    14    25    2
    25    15    16    1
    26    15    38    1
    27    15    39    1
    28    16    17    1
    29    16    18    1
    30    16    40    1
    31    18    19   ar
    32    18    23   ar
    33    19    20   ar
    34    19    41    1
    35    20    21   ar
    36    20    42    1
    37    21    22   ar
    38    21    24    1
    39    22    23   ar
    40    22    43    1
    41    23    44    1
    42    24    45    1
    43    26    46    1
    44    27    47    1
    45    28    48    1
    46    29    49    1
    47    30    50    1
    48     1    31    1
    49     1    27    1
    50     2    32    1
    51     2    28    1
    52     4    34    1
    53     4    30    1
