@<TRIPOS>MOLECULE
*****
 50 53 0 0 0
SMALL
GASTEIGER

@<TRIPOS>ATOM
     1 C         -0.000682   -1.106328   1.883306 C.3        1 UNL1     0.1889
     2 C         -0.263729   -1.003336   0.356827 C.3        1 UNL1     0.1342
     3 C         -1.704849   -1.323744   -0.068587 C.3        1 UNL1     0.1174
     4 C         -2.347612   -2.416897   0.788728 C.3        1 UNL1     0.1456
     5 C         -2.123462   -2.193507   2.295452 C.3        1 UNL1     0.2326
     6 O         -0.727159   -2.113135   2.572484 O.3        1 UNL1     -0.3076
     7 O         -2.870739   -1.084752   2.827957 O.3        1 UNL1     -0.4605
     8 C         -3.27279   -1.202022   4.146339 C.ar        1 UNL1     0.1310
     9 C         -3.857686   -2.337493   4.717217 C.ar        1 UNL1     0.0226
     10 C         -4.215698   -2.364487   6.070362 C.ar        1 UNL1     0.1343
     11 C         -3.975418   -1.26394   6.891886 C.ar        1 UNL1     0.1007
     12 C         -3.429554   -0.109737   6.323879 C.ar        1 UNL1     0.1389
     13 C         -3.072094   -0.081916   4.962674 C.ar        1 UNL1     0.0229
     14 C         -4.25654   -1.267994   8.346227 C.2        1 UNL1     0.1740
     15 C         -3.732295   -0.088975   9.112145 C.3        1 UNL1     0.0520
     16 C         -3.949174   1.164262   8.275294 C.3        1 UNL1     0.1322
     17 O         -3.250482   1.066307   7.014618 O.3        1 UNL1     -0.4828
     18 C         -5.417649   1.57912   8.156144 C.ar        1 UNL1     -0.0067
     19 C         -5.950303   1.884176   6.886721 C.ar        1 UNL1     -0.0516
     20 C         -7.275932   2.312457   6.747995 C.ar        1 UNL1     -0.0198
     21 C         -8.075127   2.446477   7.869224 C.ar        1 UNL1     0.1169
     22 C         -7.589267   2.121562   9.129068 C.ar        1 UNL1     -0.0198
     23 C         -6.269265   1.675588   9.266026 C.ar        1 UNL1     -0.0516
     24 O         -9.349352   2.902402   7.699268 O.3        1 UNL1     -0.5068
     25 O         -4.80883   -2.199606   8.925502 O.2        1 UNL1     -0.2917
     26 O         -4.783256   -3.502281   6.565224 O.3        1 UNL1     -0.5058
     27 O         -0.069959   0.141719   2.554399 O.3        1 UNL1     -0.3648
     28 O         0.599843   -1.936333   -0.318796 O.3        1 UNL1     -0.3841
     29 O         -2.492433   -0.13285   -0.128731 O.3        1 UNL1     -0.3863
     30 O         -1.788995   -3.696958   0.421194 O.3        1 UNL1     -0.3829
     31 H         1.042967   -1.417979   2.00057 H        1 UNL1     0.0937
     32 H         0.0   0.0   0.0 H        1 UNL1     0.0671
     33 H         -1.673459   -1.705121   -1.098774 H        1 UNL1     0.0649
     34 H         -3.42328   -2.466636   0.586579 H        1 UNL1     0.0683
     35 H         -2.487448   -3.119869   2.757236 H        1 UNL1     0.1085
     36 H         -4.019138   -3.24454   4.145099 H        1 UNL1     0.0691
     37 H         -2.649805   0.82924   4.544392 H        1 UNL1     0.0691
     38 H         -2.666531   -0.261188   9.296582 H        1 UNL1     0.0385
     39 H         -4.242395   -0.034031   10.079904 H        1 UNL1     0.0385
     40 H         -3.454655   1.993177   8.799576 H        1 UNL1     0.0789
     41 H         -5.340668   1.795812   5.992189 H        1 UNL1     0.0623
     42 H         -7.671458   2.556073   5.765029 H        1 UNL1     0.0654
     43 H         -8.211087   2.208488   10.012071 H        1 UNL1     0.0654
     44 H         -5.92603   1.420448   10.263993 H        1 UNL1     0.0623
     45 H         -9.307774   3.791534   7.31141 H        1 UNL1     0.2921
     46 H         -4.259451   -3.82525   7.315378 H        1 UNL1     0.2922
     47 H         0.541636   0.773304   2.150776 H        1 UNL1     0.2126
     48 H         1.516215   -1.656072   -0.130517 H        1 UNL1     0.2101
     49 H         -2.199473   0.419412   -0.871008 H        1 UNL1     0.2100
     50 H         -2.063714   -3.892949   -0.498496 H        1 UNL1     0.2102
@<TRIPOS>BOND
     1     1     2    1
     2     1     6    1
     3     2     3    1
     4     3     4    1
     5     3    29    1
     6     3    33    1
     7     4     5    1
     8     5     6    1
     9     5     7    1
    10     5    35    1
    11     7     8    1
    12     8     9   ar
    13     8    13   ar
    14     9    10   ar
    15     9    36    1
    16    10    11   ar
    17    10    26    1
    18    11    12   ar
    19    11    14    1
    20    12    13   ar
    21    12    17    1
    22    13    37    1
    23    14    15    1
    24    14    25    2
    25    15    16    1
    26    15    38    1
    27    15    39    1
    28    16    17    1
    29    16    18    1
    30    16    40    1
    31    18    19   ar
    32    18    23   ar
    33    19    20   ar
    34    19    41    1
    35    20    21   ar
    36    20    42    1
    37    21    22   ar
    38    21    24    1
    39    22    23   ar
    40    22    43    1
    41    23    44    1
    42    24    45    1
    43    26    46    1
    44    27    47    1
    45    28    48    1
    46    29    49    1
    47    30    50    1
    48     1    31    1
    49     1    27    1
    50     2    32    1
    51     2    28    1
    52     4    34    1
    53     4    30    1
