@<TRIPOS>MOLECULE
*****
 50 53 0 0 0
SMALL
GASTEIGER

@<TRIPOS>ATOM
     1 C         -0.330649   -1.327352   1.702825 C.3        1 UNL1     0.1889
     2 C         -0.461823   -0.975531   0.19652 C.3        1 UNL1     0.1342
     3 C         -1.902842   -0.964193   -0.336212 C.3        1 UNL1     0.1174
     4 C         -2.78831   -2.023516   0.324771 C.3        1 UNL1     0.1456
     5 C         -2.636172   -2.047715   1.856643 C.3        1 UNL1     0.2326
     6 O         -1.271033   -2.264759   2.206153 O.3        1 UNL1     -0.3076
     7 O         -3.211547   -0.900553   2.508015 O.3        1 UNL1     -0.4605
     8 C         -3.720527   -1.115391   3.776207 C.ar        1 UNL1     0.1310
     9 C         -4.535957   -2.188652   4.15102 C.ar        1 UNL1     0.0226
     10 C         -4.988212   -2.328345   5.468538 C.ar        1 UNL1     0.1343
     11 C         -4.616076   -1.410186   6.449527 C.ar        1 UNL1     0.1007
     12 C         -3.835856   -0.311847   6.078458 C.ar        1 UNL1     0.1389
     13 C         -3.383424   -0.170177   4.753065 C.ar        1 UNL1     0.0229
     14 C         -4.995975   -1.555194   7.873887 C.2        1 UNL1     0.1740
     15 C         -4.327255   -0.605761   8.824118 C.3        1 UNL1     0.0520
     16 C         -4.259225   0.765766   8.166665 C.3        1 UNL1     0.1322
     17 O         -3.501179   0.708508   6.938187 O.3        1 UNL1     -0.4828
     18 C         -5.619015   1.457137   8.041363 C.ar        1 UNL1     -0.0067
     19 C         -5.99908   2.018747   6.805095 C.ar        1 UNL1     -0.0516
     20 C         -7.214891   2.699319   6.668756 C.ar        1 UNL1     -0.0198
     21 C         -8.054169   2.831183   7.760567 C.ar        1 UNL1     0.1169
     22 C         -7.722889   2.26014   8.982452 C.ar        1 UNL1     -0.0198
     23 C         -6.515612   1.563608   9.11429 C.ar        1 UNL1     -0.0516
     24 O         -9.212435   3.533249   7.599563 O.3        1 UNL1     -0.5068
     25 O         -5.743953   -2.437094   8.287731 O.2        1 UNL1     -0.2917
     26 O         -5.781636   -3.396984   5.768659 O.3        1 UNL1     -0.5058
     27 O         -0.22571   -0.188492   2.542333 O.3        1 UNL1     -0.3648
     28 O         0.269008   -1.95407   -0.565748 O.3        1 UNL1     -0.3841
     29 O         -2.461003   0.349161   -0.260764 O.3        1 UNL1     -0.3863
     30 O         -2.440197   -3.324473   -0.196783 O.3        1 UNL1     -0.3829
     31 H         0.630347   -1.839589   1.821894 H        1 UNL1     0.0937
     32 H         0.0   0.0   0.0 H        1 UNL1     0.0671
     33 H         -1.866052   -1.204454   -1.407958 H        1 UNL1     0.0649
     34 H         -3.838619   -1.845951   0.068408 H        1 UNL1     0.0683
     35 H         -3.190277   -2.943685   2.163374 H        1 UNL1     0.1085
     36 H         -4.8142   -2.966079   3.447949 H        1 UNL1     0.0691
     37 H         -2.778109   0.694477   4.489514 H        1 UNL1     0.0691
     38 H         -3.32454   -0.995044   9.030389 H        1 UNL1     0.0385
     39 H         -4.88698   -0.586381   9.765453 H        1 UNL1     0.0385
     40 H         -3.664431   1.411861   8.826438 H        1 UNL1     0.0789
     41 H         -5.353667   1.936797   5.935395 H        1 UNL1     0.0623
     42 H         -7.49126   3.13827   5.71327 H        1 UNL1     0.0654
     43 H         -8.379712   2.344451   9.839999 H        1 UNL1     0.0654
     44 H         -6.293668   1.121147   10.08063 H        1 UNL1     0.0623
     45 H         -8.987165   4.440754   7.338018 H        1 UNL1     0.2921
     46 H         -5.377063   -3.908704   6.486904 H        1 UNL1     0.2922
     47 H         0.516859   0.365479   2.263824 H        1 UNL1     0.2126
     48 H         1.201984   -1.887518   -0.28493 H        1 UNL1     0.2101
     49 H         -2.022685   0.931337   -0.901655 H        1 UNL1     0.2100
     50 H         -2.673763   -3.34031   -1.14805 H        1 UNL1     0.2102
@<TRIPOS>BOND
     1     1     2    1
     2     1     6    1
     3     2     3    1
     4     3     4    1
     5     3    29    1
     6     3    33    1
     7     4     5    1
     8     5     6    1
     9     5     7    1
    10     5    35    1
    11     7     8    1
    12     8     9   ar
    13     8    13   ar
    14     9    10   ar
    15     9    36    1
    16    10    11   ar
    17    10    26    1
    18    11    12   ar
    19    11    14    1
    20    12    13   ar
    21    12    17    1
    22    13    37    1
    23    14    15    1
    24    14    25    2
    25    15    16    1
    26    15    38    1
    27    15    39    1
    28    16    17    1
    29    16    18    1
    30    16    40    1
    31    18    19   ar
    32    18    23   ar
    33    19    20   ar
    34    19    41    1
    35    20    21   ar
    36    20    42    1
    37    21    22   ar
    38    21    24    1
    39    22    23   ar
    40    22    43    1
    41    23    44    1
    42    24    45    1
    43    26    46    1
    44    27    47    1
    45    28    48    1
    46    29    49    1
    47    30    50    1
    48     1    31    1
    49     1    27    1
    50     2    32    1
    51     2    28    1
    52     4    34    1
    53     4    30    1
