@<TRIPOS>MOLECULE
*****
 50 53 0 0 0
SMALL
GASTEIGER

@<TRIPOS>ATOM
     1 C         -0.331633   -1.328725   1.701562 C.3        1 UNL1     0.1889
     2 C         -0.462408   -0.975446   0.195564 C.3        1 UNL1     0.1342
     3 C         -1.90335   -0.962794   -0.337345 C.3        1 UNL1     0.1174
     4 C         -2.789511   -2.022216   0.322548 C.3        1 UNL1     0.1456
     5 C         -2.637587   -2.047908   1.854418 C.3        1 UNL1     0.2326
     6 O         -1.272619   -2.266056   2.203907 O.3        1 UNL1     -0.3076
     7 O         -3.212391   -0.901016   2.506767 O.3        1 UNL1     -0.4605
     8 C         -3.72166   -1.116727   3.774695 C.ar        1 UNL1     0.1310
     9 C         -4.537754   -2.189865   4.148416 C.ar        1 UNL1     0.0226
     10 C         -4.990261   -2.330508   5.465746 C.ar        1 UNL1     0.1343
     11 C         -4.617728   -1.413462   6.447626 C.ar        1 UNL1     0.1007
     12 C         -3.836831   -0.31523   6.077668 C.ar        1 UNL1     0.1389
     13 C         -3.384144   -0.172603   4.752465 C.ar        1 UNL1     0.0229
     14 C         -4.997897   -1.559561   7.871804 C.2        1 UNL1     0.1740
     15 C         -4.328758   -0.611384   8.822993 C.3        1 UNL1     0.0520
     16 C         -4.259857   0.760706   8.166808 C.3        1 UNL1     0.1322
     17 O         -3.501683   0.704142   6.938378 O.3        1 UNL1     -0.4828
     18 C         -5.619234   1.452971   8.041963 C.ar        1 UNL1     -0.0067
     19 C         -5.998816   2.015933   6.806162 C.ar        1 UNL1     -0.0516
     20 C         -7.214219   2.697326   6.670289 C.ar        1 UNL1     -0.0198
     21 C         -8.053564   2.828668   7.762112 C.ar        1 UNL1     0.1169
     22 C         -7.722772   2.256315   8.983515 C.ar        1 UNL1     -0.0198
     23 C         -6.515911   1.558971   9.11487 C.ar        1 UNL1     -0.0516
     24 O         -9.211407   3.531546   7.601601 O.3        1 UNL1     -0.5068
     25 O         -5.746434   -2.441412   8.284739 O.2        1 UNL1     -0.2917
     26 O         -5.784337   -3.398967   5.764782 O.3        1 UNL1     -0.5058
     27 O         -0.226151   -0.190697   2.54213 O.3        1 UNL1     -0.3648
     28 O         0.267963   -1.953704   -0.567507 O.3        1 UNL1     -0.3841
     29 O         -2.460768   0.350809   -0.260764 O.3        1 UNL1     -0.3863
     30 O         -2.442075   -3.322893   -0.200154 O.3        1 UNL1     -0.3829
     31 H         0.629055   -1.841622   1.820287 H        1 UNL1     0.0937
     32 H         0.0   0.0   0.0 H        1 UNL1     0.0671
     33 H         -1.866557   -1.202092   -1.409307 H        1 UNL1     0.0649
     34 H         -3.839684   -1.843815   0.066211 H        1 UNL1     0.0683
     35 H         -3.192246   -2.943842   2.160254 H        1 UNL1     0.1085
     36 H         -4.81635   -2.966485   3.444595 H        1 UNL1     0.0691
     37 H         -2.778299   0.691946   4.489787 H        1 UNL1     0.0691
     38 H         -3.326293   -1.001431   9.029038 H        1 UNL1     0.0385
     39 H         -4.888595   -0.592548   9.764272 H        1 UNL1     0.0385
     40 H         -3.664779   1.405855   8.827252 H        1 UNL1     0.0789
     41 H         -5.353336   1.934412   5.936472 H        1 UNL1     0.0623
     42 H         -7.490211   3.137313   5.715171 H        1 UNL1     0.0654
     43 H         -8.379659   2.340215   9.841053 H        1 UNL1     0.0654
     44 H         -6.294347   1.115495   10.080833 H        1 UNL1     0.0623
     45 H         -8.985583   4.439161   7.340919 H        1 UNL1     0.2921
     46 H         -5.380151   -3.911578   6.482609 H        1 UNL1     0.2922
     47 H         0.516771   0.363104   2.264227 H        1 UNL1     0.2126
     48 H         1.200941   -1.887943   -0.286506 H        1 UNL1     0.2101
     49 H         -2.022033   0.933323   -0.901064 H        1 UNL1     0.2100
     50 H         -2.675525   -3.337723   -1.151466 H        1 UNL1     0.2102
@<TRIPOS>BOND
     1     1     2    1
     2     1     6    1
     3     2     3    1
     4     3     4    1
     5     3    29    1
     6     3    33    1
     7     4     5    1
     8     5     6    1
     9     5     7    1
    10     5    35    1
    11     7     8    1
    12     8     9   ar
    13     8    13   ar
    14     9    10   ar
    15     9    36    1
    16    10    11   ar
    17    10    26    1
    18    11    12   ar
    19    11    14    1
    20    12    13   ar
    21    12    17    1
    22    13    37    1
    23    14    15    1
    24    14    25    2
    25    15    16    1
    26    15    38    1
    27    15    39    1
    28    16    17    1
    29    16    18    1
    30    16    40    1
    31    18    19   ar
    32    18    23   ar
    33    19    20   ar
    34    19    41    1
    35    20    21   ar
    36    20    42    1
    37    21    22   ar
    38    21    24    1
    39    22    23   ar
    40    22    43    1
    41    23    44    1
    42    24    45    1
    43    26    46    1
    44    27    47    1
    45    28    48    1
    46    29    49    1
    47    30    50    1
    48     1    31    1
    49     1    27    1
    50     2    32    1
    51     2    28    1
    52     4    34    1
    53     4    30    1
