@<TRIPOS>MOLECULE
*****
 50 53 0 0 0
SMALL
GASTEIGER

@<TRIPOS>ATOM
     1 C         -0.330188   -1.327218   1.703019 C.3        1 UNL1     0.1889
     2 C         -0.46145   -0.97568   0.196655 C.3        1 UNL1     0.1342
     3 C         -1.902456   -0.964984   -0.336124 C.3        1 UNL1     0.1174
     4 C         -2.787533   -2.02455   0.324993 C.3        1 UNL1     0.1456
     5 C         -2.635435   -2.048454   1.856873 C.3        1 UNL1     0.2326
     6 O         -1.270223   -2.264914   2.206461 O.3        1 UNL1     -0.3076
     7 O         -3.211277   -0.901416   2.50805 O.3        1 UNL1     -0.4605
     8 C         -3.720214   -1.116257   3.776259 C.ar        1 UNL1     0.1310
     9 C         -4.535239   -2.189778   4.151212 C.ar        1 UNL1     0.0226
     10 C         -4.987482   -2.329443   5.468737 C.ar        1 UNL1     0.1343
     11 C         -4.615734   -1.410988   6.449596 C.ar        1 UNL1     0.1007
     12 C         -3.83593   -0.312403   6.078383 C.ar        1 UNL1     0.1389
     13 C         -3.38351   -0.170762   4.752983 C.ar        1 UNL1     0.0229
     14 C         -4.995622   -1.555926   7.873967 C.2        1 UNL1     0.1740
     15 C         -4.327302   -0.606086   8.824073 C.3        1 UNL1     0.0520
     16 C         -4.259784   0.765365   8.166411 C.3        1 UNL1     0.1322
     17 O         -3.501677   0.708213   6.937966 O.3        1 UNL1     -0.4828
     18 C         -5.619839   1.456189   8.040959 C.ar        1 UNL1     -0.0067
     19 C         -6.000132   2.017358   6.804561 C.ar        1 UNL1     -0.0516
     20 C         -7.216204   2.697434   6.668073 C.ar        1 UNL1     -0.0198
     21 C         -8.05552   2.829239   7.759862 C.ar        1 UNL1     0.1169
     22 C         -7.724009   2.258615   8.98188 C.ar        1 UNL1     -0.0198
     23 C         -6.516465   1.562575   9.11387 C.ar        1 UNL1     -0.0516
     24 O         -9.214055   3.530826   7.598703 O.3        1 UNL1     -0.5068
     25 O         -5.743271   -2.438053   8.287921 O.2        1 UNL1     -0.2917
     26 O         -5.7805   -3.398345   5.768997 O.3        1 UNL1     -0.5058
     27 O         -0.225718   -0.188189   2.542355 O.3        1 UNL1     -0.3648
     28 O         0.269786   -1.954052   -0.565439 O.3        1 UNL1     -0.3841
     29 O         -2.46113   0.348163   -0.260896 O.3        1 UNL1     -0.3863
     30 O         -2.438898   -3.325452   -0.19635 O.3        1 UNL1     -0.3829
     31 H         0.631004   -1.839064   1.822198 H        1 UNL1     0.0937
     32 H         0.0   0.0   0.0 H        1 UNL1     0.0671
     33 H         -1.865539   -1.205396   -1.407833 H        1 UNL1     0.0649
     34 H         -3.837903   -1.847433   0.068569 H        1 UNL1     0.0683
     35 H         -3.189202   -2.944592   2.163725 H        1 UNL1     0.1085
     36 H         -4.813157   -2.96742   3.448251 H        1 UNL1     0.0691
     37 H         -2.778523   0.694087   4.489318 H        1 UNL1     0.0691
     38 H         -3.324442   -0.994948   9.030436 H        1 UNL1     0.0385
     39 H         -4.887065   -0.586779   9.765387 H        1 UNL1     0.0385
     40 H         -3.665263   1.411794   8.826103 H        1 UNL1     0.0789
     41 H         -5.354698   1.935446   5.934874 H        1 UNL1     0.0623
     42 H         -7.49275   3.136052   5.712486 H        1 UNL1     0.0654
     43 H         -8.380854   2.342881   9.839414 H        1 UNL1     0.0654
     44 H         -6.294342   1.120429   10.080314 H        1 UNL1     0.0623
     45 H         -8.989168   4.438044   7.335835 H        1 UNL1     0.2921
     46 H         -5.375104   -3.910525   6.486448 H        1 UNL1     0.2922
     47 H         0.51675   0.36594   2.263891 H        1 UNL1     0.2126
     48 H         1.202548   -1.887826   -0.283833 H        1 UNL1     0.2101
     49 H         -2.022959   0.930434   -0.901803 H        1 UNL1     0.2100
     50 H         -2.672427   -3.341526   -1.147622 H        1 UNL1     0.2102
@<TRIPOS>BOND
     1     1     2    1
     2     1     6    1
     3     2     3    1
     4     3     4    1
     5     3    29    1
     6     3    33    1
     7     4     5    1
     8     5     6    1
     9     5     7    1
    10     5    35    1
    11     7     8    1
    12     8     9   ar
    13     8    13   ar
    14     9    10   ar
    15     9    36    1
    16    10    11   ar
    17    10    26    1
    18    11    12   ar
    19    11    14    1
    20    12    13   ar
    21    12    17    1
    22    13    37    1
    23    14    15    1
    24    14    25    2
    25    15    16    1
    26    15    38    1
    27    15    39    1
    28    16    17    1
    29    16    18    1
    30    16    40    1
    31    18    19   ar
    32    18    23   ar
    33    19    20   ar
    34    19    41    1
    35    20    21   ar
    36    20    42    1
    37    21    22   ar
    38    21    24    1
    39    22    23   ar
    40    22    43    1
    41    23    44    1
    42    24    45    1
    43    26    46    1
    44    27    47    1
    45    28    48    1
    46    29    49    1
    47    30    50    1
    48     1    31    1
    49     1    27    1
    50     2    32    1
    51     2    28    1
    52     4    34    1
    53     4    30    1
