@<TRIPOS>MOLECULE
*****
 50 53 0 0 0
SMALL
GASTEIGER

@<TRIPOS>ATOM
     1 C         -0.380558   -1.389578   1.641662 C.3        1 UNL1     0.1889
     2 C         -0.490032   -0.969845   0.151098 C.3        1 UNL1     0.1342
     3 C         -1.925914   -0.895534   -0.390366 C.3        1 UNL1     0.1174
     4 C         -2.845412   -1.95723   0.218273 C.3        1 UNL1     0.1456
     5 C         -2.706174   -2.051452   1.748664 C.3        1 UNL1     0.2326
     6 O         -1.350343   -2.321216   2.09769 O.3        1 UNL1     -0.3076
     7 O         -3.254931   -0.917773   2.445053 O.3        1 UNL1     -0.4605
     8 C         -3.790329   -1.174775   3.694383 C.ar        1 UNL1     0.1310
     9 C         -4.64526   -2.237255   4.00668 C.ar        1 UNL1     0.0226
     10 C         -5.122354   -2.423374   5.309617 C.ar        1 UNL1     0.1343
     11 C         -4.736652   -1.56447   6.337897 C.ar        1 UNL1     0.1007
     12 C         -3.916171   -0.475982   6.03002 C.ar        1 UNL1     0.1389
     13 C         -3.438714   -0.287529   4.719313 C.ar        1 UNL1     0.0229
     14 C         -5.143281   -1.763223   7.748324 C.2        1 UNL1     0.1740
     15 C         -4.459705   -0.881302   8.751563 C.3        1 UNL1     0.0520
     16 C         -4.337783   0.516414   8.160393 C.3        1 UNL1     0.1322
     17 O         -3.562751   0.491815   6.941463 O.3        1 UNL1     -0.4828
     18 C         -5.672764   1.256698   8.048472 C.ar        1 UNL1     -0.0067
     19 C         -5.706604   2.539056   7.463127 C.ar        1 UNL1     -0.0516
     20 C         -6.902491   3.263056   7.388028 C.ar        1 UNL1     -0.0198
     21 C         -8.067252   2.719998   7.900129 C.ar        1 UNL1     0.1169
     22 C         -8.072328   1.445692   8.452359 C.ar        1 UNL1     -0.0198
     23 C         -6.880211   0.713926   8.510927 C.ar        1 UNL1     -0.0516
     24 O         -9.205079   3.470012   7.84331 O.3        1 UNL1     -0.5068
     25 O         -5.92533   -2.63866   8.109563 O.2        1 UNL1     -0.2917
     26 O         -5.953973   -3.478477   5.547841 O.3        1 UNL1     -0.5058
     27 O         -0.251003   -0.291204   2.530243 O.3        1 UNL1     -0.3648
     28 O         0.219638   -1.934684   -0.647751 O.3        1 UNL1     -0.3841
     29 O         -2.448317   0.428387   -0.26206 O.3        1 UNL1     -0.3863
     30 O         -2.529087   -3.243758   -0.356596 O.3        1 UNL1     -0.3829
     31 H         0.565007   -1.933001   1.744993 H        1 UNL1     0.0937
     32 H         0.0   0.0   0.0 H        1 UNL1     0.0671
     33 H         -1.887234   -1.090453   -1.471213 H        1 UNL1     0.0649
     34 H         -3.888369   -1.739657   -0.037273 H        1 UNL1     0.0683
     35 H         -3.287136   -2.944009   2.01268 H        1 UNL1     0.1085
     36 H         -4.937015   -2.971646   3.263935 H        1 UNL1     0.0691
     37 H         -2.802146   0.568329   4.505349 H        1 UNL1     0.0691
     38 H         -3.473238   -1.312152   8.9535 H        1 UNL1     0.0385
     39 H         -5.033237   -0.887596   9.684729 H        1 UNL1     0.0385
     40 H         -3.733172   1.111414   8.858206 H        1 UNL1     0.0789
     41 H         -4.804092   2.991117   7.062174 H        1 UNL1     0.0623
     42 H         -6.913332   4.255856   6.945036 H        1 UNL1     0.0654
     43 H         -8.981771   1.004757   8.842746 H        1 UNL1     0.0654
     44 H         -6.922917   -0.282771   8.939433 H        1 UNL1     0.0623
     45 H         -9.070205   4.272497   8.372975 H        1 UNL1     0.2921
     46 H         -5.577882   -4.03521   6.247852 H        1 UNL1     0.2922
     47 H         0.496233   0.264741   2.268665 H        1 UNL1     0.2126
     48 H         1.165181   -1.844543   -0.420694 H        1 UNL1     0.2101
     49 H         -1.995169   1.023343   -0.880509 H        1 UNL1     0.2100
     50 H         -2.781712   -3.221506   -1.302851 H        1 UNL1     0.2102
@<TRIPOS>BOND
     1     1     2    1
     2     1     6    1
     3     2     3    1
     4     3     4    1
     5     3    29    1
     6     3    33    1
     7     4     5    1
     8     5     6    1
     9     5     7    1
    10     5    35    1
    11     7     8    1
    12     8     9   ar
    13     8    13   ar
    14     9    10   ar
    15     9    36    1
    16    10    11   ar
    17    10    26    1
    18    11    12   ar
    19    11    14    1
    20    12    13   ar
    21    12    17    1
    22    13    37    1
    23    14    15    1
    24    14    25    2
    25    15    16    1
    26    15    38    1
    27    15    39    1
    28    16    17    1
    29    16    18    1
    30    16    40    1
    31    18    19   ar
    32    18    23   ar
    33    19    20   ar
    34    19    41    1
    35    20    21   ar
    36    20    42    1
    37    21    22   ar
    38    21    24    1
    39    22    23   ar
    40    22    43    1
    41    23    44    1
    42    24    45    1
    43    26    46    1
    44    27    47    1
    45    28    48    1
    46    29    49    1
    47    30    50    1
    48     1    31    1
    49     1    27    1
    50     2    32    1
    51     2    28    1
    52     4    34    1
    53     4    30    1
