@<TRIPOS>MOLECULE
*****
 50 53 0 0 0
SMALL
GASTEIGER

@<TRIPOS>ATOM
     1 C         -0.24297   -1.426898   1.635766 C.3        1 UNL1     0.1889
     2 C         -0.445696   -0.989589   0.160096 C.3        1 UNL1     0.1342
     3 C         -1.909747   -0.960952   -0.304876 C.3        1 UNL1     0.1174
     4 C         -2.756689   -2.065106   0.332816 C.3        1 UNL1     0.1456
     5 C         -2.534057   -2.176644   1.852144 C.3        1 UNL1     0.2326
     6 O         -1.152847   -2.400724   2.125851 O.3        1 UNL1     -0.3076
     7 O         -3.086576   -1.074646   2.59487 O.3        1 UNL1     -0.4605
     8 C         -3.545994   -1.369871   3.865817 C.ar        1 UNL1     0.1310
     9 C         -4.34401   -2.468023   4.204246 C.ar        1 UNL1     0.0226
     10 C         -4.74502   -2.691036   5.526879 C.ar        1 UNL1     0.1343
     11 C         -4.337556   -1.833604   6.547968 C.ar        1 UNL1     0.1007
     12 C         -3.574637   -0.710817   6.216172 C.ar        1 UNL1     0.1389
     13 C         -3.173757   -0.485343   4.885801 C.ar        1 UNL1     0.0229
     14 C         -4.662148   -2.068197   7.974067 C.2        1 UNL1     0.1740
     15 C         -3.959571   -1.176276   8.955092 C.3        1 UNL1     0.0520
     16 C         -3.919928   0.233592   8.381805 C.3        1 UNL1     0.1322
     17 O         -3.20949   0.255941   7.12409 O.3        1 UNL1     -0.4828
     18 C         -5.285081   0.925091   8.351621 C.ar        1 UNL1     -0.0067
     19 C         -5.706015   1.575558   7.173521 C.ar        1 UNL1     -0.0516
     20 C         -6.927582   2.257887   7.126986 C.ar        1 UNL1     -0.0198
     21 C         -7.732042   2.303202   8.251539 C.ar        1 UNL1     0.1169
     22 C         -7.360298   1.644143   9.416136 C.ar        1 UNL1     -0.0198
     23 C         -6.147356   0.94619   9.457257 C.ar        1 UNL1     -0.0516
     24 O         -8.896943   3.009119   8.180215 O.3        1 UNL1     -0.5068
     25 O         -5.391694   -2.977459   8.360709 O.2        1 UNL1     -0.2917
     26 O         -5.523925   -3.779853   5.79026 O.3        1 UNL1     -0.5058
     27 O         -0.107197   -0.337689   2.534641 O.3        1 UNL1     -0.3648
     28 O         0.25587   -1.915363   -0.690465 O.3        1 UNL1     -0.3841
     29 O         -2.472696   0.340504   -0.12758 O.3        1 UNL1     -0.3863
     30 O         -2.424175   -3.330301   -0.279071 O.3        1 UNL1     -0.3829
     31 H         0.725923   -1.936106   1.680849 H        1 UNL1     0.0937
     32 H         0.0   0.0   0.0 H        1 UNL1     0.0671
     33 H         -1.920697   -1.138315   -1.389377 H        1 UNL1     0.0649
     34 H         -3.818858   -1.882874   0.135356 H        1 UNL1     0.0683
     35 H         -3.0674   -3.094068   2.130994 H        1 UNL1     0.1085
     36 H         -4.647296   -3.20175   3.465474 H        1 UNL1     0.0691
     37 H         -2.580958   0.39675   4.653432 H        1 UNL1     0.0691
     38 H         -2.9488   -1.57293   9.098393 H        1 UNL1     0.0385
     39 H         -4.482776   -1.217751   9.916505 H        1 UNL1     0.0385
     40 H         -3.301693   0.840384   9.057163 H        1 UNL1     0.0789
     41 H         -5.088394   1.562361   6.280201 H        1 UNL1     0.0623
     42 H         -7.235561   2.765594   6.216276 H        1 UNL1     0.0654
     43 H         -7.989717   1.660542   10.29788 H        1 UNL1     0.0654
     44 H         -5.893418   0.433879   10.38024 H        1 UNL1     0.0623
     45 H         -8.681249   3.940539   8.010956 H        1 UNL1     0.2921
     46 H         -5.091572   -4.33243   6.460441 H        1 UNL1     0.2922
     47 H         0.604499   0.249566   2.243986 H        1 UNL1     0.2126
     48 H         1.203914   -1.833763   -0.470721 H        1 UNL1     0.2101
     49 H         -2.074373   0.961103   -0.758444 H        1 UNL1     0.2100
     50 H         -2.706295   -3.29521   -1.216562 H        1 UNL1     0.2102
@<TRIPOS>BOND
     1     1     2    1
     2     1     6    1
     3     2     3    1
     4     3     4    1
     5     3    29    1
     6     3    33    1
     7     4     5    1
     8     5     6    1
     9     5     7    1
    10     5    35    1
    11     7     8    1
    12     8     9   ar
    13     8    13   ar
    14     9    10   ar
    15     9    36    1
    16    10    11   ar
    17    10    26    1
    18    11    12   ar
    19    11    14    1
    20    12    13   ar
    21    12    17    1
    22    13    37    1
    23    14    15    1
    24    14    25    2
    25    15    16    1
    26    15    38    1
    27    15    39    1
    28    16    17    1
    29    16    18    1
    30    16    40    1
    31    18    19   ar
    32    18    23   ar
    33    19    20   ar
    34    19    41    1
    35    20    21   ar
    36    20    42    1
    37    21    22   ar
    38    21    24    1
    39    22    23   ar
    40    22    43    1
    41    23    44    1
    42    24    45    1
    43    26    46    1
    44    27    47    1
    45    28    48    1
    46    29    49    1
    47    30    50    1
    48     1    31    1
    49     1    27    1
    50     2    32    1
    51     2    28    1
    52     4    34    1
    53     4    30    1
