@<TRIPOS>MOLECULE
*****
 50 53 0 0 0
SMALL
GASTEIGER

@<TRIPOS>ATOM
     1 C         0.279288   -1.678119   1.369934 C.3        1 UNL1     0.1889
     2 C         -0.56497   -0.512232   0.788663 C.3        1 UNL1     0.1342
     3 C         -1.028992   0.522421   1.825312 C.3        1 UNL1     0.1174
     4 C         -1.345433   -0.10207   3.186559 C.3        1 UNL1     0.1456
     5 C         -0.254129   -1.08219   3.654305 C.3        1 UNL1     0.2326
     6 O         -0.069019   -2.10524   2.678614 O.3        1 UNL1     -0.3076
     7 O         0.973395   -0.434286   4.034732 O.3        1 UNL1     -0.4605
     8 C         0.996954   0.124895   5.299758 C.ar        1 UNL1     0.1310
     9 C         1.450496   1.411849   5.608546 C.ar        1 UNL1     0.0226
     10 C         1.41802   1.894881   6.92214 C.ar        1 UNL1     0.1343
     11 C         0.908571   1.110539   7.956117 C.ar        1 UNL1     0.1007
     12 C         0.490822   -0.191232   7.666874 C.ar        1 UNL1     0.1389
     13 C         0.526036   -0.677637   6.346418 C.ar        1 UNL1     0.0229
     14 C         0.773087   1.60097   9.347259 C.2        1 UNL1     0.1740
     15 C         0.003165   0.710331   10.277598 C.3        1 UNL1     0.0520
     16 C         0.387548   -0.73442   9.98967 C.3        1 UNL1     0.1322
     17 O         0.073112   -1.086333   8.624255 O.3        1 UNL1     -0.4828
     18 C         1.810626   -1.091938   10.425279 C.ar        1 UNL1     -0.0067
     19 C         2.902566   -0.407252   9.853365 C.ar        1 UNL1     -0.0516
     20 C         4.218529   -0.74192   10.194251 C.ar        1 UNL1     -0.0198
     21 C         4.455433   -1.762009   11.098198 C.ar        1 UNL1     0.1169
     22 C         3.400241   -2.432122   11.703473 C.ar        1 UNL1     -0.0198
     23 C         2.08384   -2.085226   11.376661 C.ar        1 UNL1     -0.0516
     24 O         5.750819   -2.085327   11.377199 O.3        1 UNL1     -0.5068
     25 O         1.183752   2.696504   9.720949 O.2        1 UNL1     -0.2917
     26 O         1.876221   3.158462   7.156654 O.3        1 UNL1     -0.5058
     27 O         1.678387   -1.483819   1.23743 O.3        1 UNL1     -0.3648
     28 O         -1.745294   -1.064665   0.176814 O.3        1 UNL1     -0.3841
     29 O         -0.098076   1.602918   1.915067 O.3        1 UNL1     -0.3863
     30 O         -2.600773   -0.811078   3.102183 O.3        1 UNL1     -0.3829
     31 H         0.069043   -2.556192   0.74956 H        1 UNL1     0.0937
     32 H         0.0   0.0   0.0 H        1 UNL1     0.0671
     33 H         -1.962091   0.97107   1.456856 H        1 UNL1     0.0649
     34 H         -1.471517   0.684579   3.93868 H        1 UNL1     0.0683
     35 H         -0.690587   -1.561109   4.539754 H        1 UNL1     0.1085
     36 H         1.806025   2.090579   4.841053 H        1 UNL1     0.0691
     37 H         0.196139   -1.69507   6.147699 H        1 UNL1     0.0691
     38 H         -1.062807   0.879928   10.091942 H        1 UNL1     0.0385
     39 H         0.22028   0.998298   11.311868 H        1 UNL1     0.0385
     40 H         -0.270611   -1.371464   10.595905 H        1 UNL1     0.0789
     41 H         2.743265   0.39111   9.134414 H        1 UNL1     0.0623
     42 H         5.05232   -0.214565   9.737412 H        1 UNL1     0.0654
     43 H         3.574221   -3.222387   12.423974 H        1 UNL1     0.0654
     44 H         1.283699   -2.622469   11.876651 H        1 UNL1     0.0623
     45 H         6.223149   -2.210727   10.538214 H        1 UNL1     0.2921
     46 H         2.742851   3.112997   7.590587 H        1 UNL1     0.2922
     47 H         1.89692   -1.231994   0.329307 H        1 UNL1     0.2126
     48 H         -1.873038   -0.587539   -0.66566 H        1 UNL1     0.2101
     49 H         -0.3557   2.201613   2.634085 H        1 UNL1     0.2100
     50 H         -2.893995   -1.014624   4.014489 H        1 UNL1     0.2102
@<TRIPOS>BOND
     1     1     2    1
     2     1     6    1
     3     2     3    1
     4     3     4    1
     5     3    29    1
     6     3    33    1
     7     4     5    1
     8     5     6    1
     9     5     7    1
    10     5    35    1
    11     7     8    1
    12     8     9   ar
    13     8    13   ar
    14     9    10   ar
    15     9    36    1
    16    10    11   ar
    17    10    26    1
    18    11    12   ar
    19    11    14    1
    20    12    13   ar
    21    12    17    1
    22    13    37    1
    23    14    15    1
    24    14    25    2
    25    15    16    1
    26    15    38    1
    27    15    39    1
    28    16    17    1
    29    16    18    1
    30    16    40    1
    31    18    19   ar
    32    18    23   ar
    33    19    20   ar
    34    19    41    1
    35    20    21   ar
    36    20    42    1
    37    21    22   ar
    38    21    24    1
    39    22    23   ar
    40    22    43    1
    41    23    44    1
    42    24    45    1
    43    26    46    1
    44    27    47    1
    45    28    48    1
    46    29    49    1
    47    30    50    1
    48     1    31    1
    49     1    27    1
    50     2    32    1
    51     2    28    1
    52     4    34    1
    53     4    30    1
