@<TRIPOS>MOLECULE
*****
 50 53 0 0 0
SMALL
GASTEIGER

@<TRIPOS>ATOM
     1 C         0.059691   -1.785905   -1.256099 C.3        1 UNL1     0.1889
     2 C         -0.531249   -0.402947   -0.871189 C.3        1 UNL1     0.1342
     3 C         -2.039701   -0.408846   -0.579635 C.3        1 UNL1     0.1174
     4 C         -2.809817   -1.399271   -1.456617 C.3        1 UNL1     0.1456
     5 C         -2.130962   -2.77947   -1.524206 C.3        1 UNL1     0.2326
     6 O         -0.794559   -2.64099   -2.001405 O.3        1 UNL1     -0.3076
     7 O         -2.218633   -3.522223   -0.294591 O.3        1 UNL1     -0.4605
     8 C         -1.018811   -3.963009   0.234241 C.ar        1 UNL1     0.1310
     9 C         -0.844695   -4.492718   1.517359 C.ar        1 UNL1     0.0226
     10 C         0.411213   -4.928803   1.956025 C.ar        1 UNL1     0.1343
     11 C         1.519906   -4.867706   1.112872 C.ar        1 UNL1     0.1007
     12 C         1.366879   -4.302818   -0.156091 C.ar        1 UNL1     0.1389
     13 C         0.104507   -3.861972   -0.595981 C.ar        1 UNL1     0.0229
     14 C         2.851864   -5.391365   1.494739 C.2        1 UNL1     0.1740
     15 C         3.867816   -5.448022   0.391933 C.3        1 UNL1     0.0520
     16 C         3.733367   -4.188129   -0.452194 C.3        1 UNL1     0.1322
     17 O         2.411222   -4.094593   -1.02687 O.3        1 UNL1     -0.4828
     18 C         4.208075   -2.917616   0.257152 C.ar        1 UNL1     -0.0067
     19 C         3.837692   -2.694213   1.599211 C.ar        1 UNL1     -0.0516
     20 C         4.215073   -1.520618   2.262703 C.ar        1 UNL1     -0.0198
     21 C         4.954956   -0.561593   1.594368 C.ar        1 UNL1     0.1169
     22 C         5.363245   -0.76781   0.283028 C.ar        1 UNL1     -0.0198
     23 C         5.001678   -1.94955   -0.37486 C.ar        1 UNL1     -0.0516
     24 O         5.271799   0.585409   2.261 O.3        1 UNL1     -0.5068
     25 O         3.110379   -5.831773   2.611742 O.2        1 UNL1     -0.2917
     26 O         0.513914   -5.434335   3.219146 O.3        1 UNL1     -0.5058
     27 O         0.661141   -2.466806   -0.166412 O.3        1 UNL1     -0.3648
     28 O         -0.309705   0.507852   -1.963923 O.3        1 UNL1     -0.3841
     29 O         -2.285773   -0.597378   0.815369 O.3        1 UNL1     -0.3863
     30 O         -2.912453   -0.866523   -2.795024 O.3        1 UNL1     -0.3829
     31 H         0.889984   -1.59092   -1.943612 H        1 UNL1     0.0937
     32 H         0.0   0.0   0.0 H        1 UNL1     0.0671
     33 H         -2.430107   0.591773   -0.812152 H        1 UNL1     0.0649
     34 H         -3.831642   -1.516917   -1.079211 H        1 UNL1     0.0683
     35 H         -2.693237   -3.313068   -2.300736 H        1 UNL1     0.1085
     36 H         -1.677788   -4.618586   2.200173 H        1 UNL1     0.0691
     37 H         0.012092   -3.424961   -1.587936 H        1 UNL1     0.0691
     38 H         3.662353   -6.345073   -0.201878 H        1 UNL1     0.0385
     39 H         4.867015   -5.548746   0.829235 H        1 UNL1     0.0385
     40 H         4.400847   -4.304939   -1.316686 H        1 UNL1     0.0789
     41 H         3.24925   -3.427516   2.142951 H        1 UNL1     0.0623
     42 H         3.913189   -1.354663   3.293885 H        1 UNL1     0.0654
     43 H         5.955616   -0.03008   -0.244951 H        1 UNL1     0.0654
     44 H         5.346871   -2.082198   -1.395688 H        1 UNL1     0.0623
     45 H         4.460631   0.945133   2.655109 H        1 UNL1     0.2921
     46 H         0.561529   -6.402523   3.177239 H        1 UNL1     0.2922
     47 H         0.771133   -3.404541   -0.37716 H        1 UNL1     0.2126
     48 H         0.422258   1.095431   -1.694268 H        1 UNL1     0.2101
     49 H         -3.042682   -1.1919   0.939568 H        1 UNL1     0.2100
     50 H         -2.683721   -1.582785   -3.423007 H        1 UNL1     0.2102
@<TRIPOS>BOND
     1     1     2    1
     2     1     6    1
     3     2     3    1
     4     3     4    1
     5     3    29    1
     6     3    33    1
     7     4     5    1
     8     5     6    1
     9     5     7    1
    10     5    35    1
    11     7     8    1
    12     8     9   ar
    13     8    13   ar
    14     9    10   ar
    15     9    36    1
    16    10    11   ar
    17    10    26    1
    18    11    12   ar
    19    11    14    1
    20    12    13   ar
    21    12    17    1
    22    13    37    1
    23    14    15    1
    24    14    25    2
    25    15    16    1
    26    15    38    1
    27    15    39    1
    28    16    17    1
    29    16    18    1
    30    16    40    1
    31    18    19   ar
    32    18    23   ar
    33    19    20   ar
    34    19    41    1
    35    20    21   ar
    36    20    42    1
    37    21    22   ar
    38    21    24    1
    39    22    23   ar
    40    22    43    1
    41    23    44    1
    42    24    45    1
    43    26    46    1
    44    27    47    1
    45    28    48    1
    46    29    49    1
    47    30    50    1
    48     1    31    1
    49     1    27    1
    50     2    32    1
    51     2    28    1
    52     4    34    1
    53     4    30    1
