@<TRIPOS>MOLECULE
*****
 50 53 0 0 0
SMALL
GASTEIGER

@<TRIPOS>ATOM
     1 C         -0.686924   -1.03647   1.795736 C.3        1 UNL1     0.1889
     2 C         -0.549414   -0.914918   0.254225 C.3        1 UNL1     0.1342
     3 C         -1.881335   -0.928713   -0.511451 C.3        1 UNL1     0.1174
     4 C         -2.928545   -1.838471   0.135704 C.3        1 UNL1     0.1456
     5 C         -3.028454   -1.633437   1.658315 C.3        1 UNL1     0.2326
     6 O         -1.754818   -1.847865   2.262251 O.3        1 UNL1     -0.3076
     7 O         -3.626659   -0.378214   2.029646 O.3        1 UNL1     -0.4605
     8 C         -4.34752   -0.375953   3.210274 C.ar        1 UNL1     0.1310
     9 C         -5.280527   -1.346081   3.591915 C.ar        1 UNL1     0.0226
     10 C         -5.94869   -1.264303   4.819422 C.ar        1 UNL1     0.1343
     11 C         -5.682232   -0.222099   5.706356 C.ar        1 UNL1     0.1007
     12 C         -4.782883   0.774755   5.318751 C.ar        1 UNL1     0.1389
     13 C         -4.11314   0.693715   4.083313 C.ar        1 UNL1     0.0229
     14 C         -6.296836   -0.132057   7.051089 C.2        1 UNL1     0.1740
     15 C         -5.731342   0.924607   7.953989 C.3        1 UNL1     0.0520
     16 C         -5.469118   2.175444   7.126582 C.3        1 UNL1     0.1322
     17 O         -4.52703   1.900766   6.06635 O.3        1 UNL1     -0.4828
     18 C         -6.743039   2.892587   6.673199 C.ar        1 UNL1     -0.0067
     19 C         -6.879157   3.275209   5.322909 C.ar        1 UNL1     -0.0516
     20 C         -8.010223   3.974382   4.884947 C.ar        1 UNL1     -0.0198
     21 C         -9.006494   4.302587   5.786918 C.ar        1 UNL1     0.1169
     22 C         -8.916656   3.910382   7.116182 C.ar        1 UNL1     -0.0198
     23 C         -7.794278   3.195098   7.55057 C.ar        1 UNL1     -0.0516
     24 O         -10.0755   5.017009   5.331695 O.3        1 UNL1     -0.5068
     25 O         -7.157411   -0.909917   7.454611 O.2        1 UNL1     -0.2917
     26 O         -6.847608   -2.24218   5.131331 O.3        1 UNL1     -0.5058
     27 O         -0.646245   0.212636   2.467202 O.3        1 UNL1     -0.3648
     28 O         0.230692   -2.026769   -0.223194 O.3        1 UNL1     -0.3841
     29 O         -2.358588   0.40161   -0.722644 O.3        1 UNL1     -0.3863
     30 O         -2.585057   -3.216699   -0.125433 O.3        1 UNL1     -0.3829
     31 H         0.207078   -1.561804   2.149096 H        1 UNL1     0.0937
     32 H         0.0   0.0   -0.0 H        1 UNL1     0.0671
     33 H         -1.686962   -1.331745   -1.515197 H        1 UNL1     0.0649
     34 H         -3.909805   -1.661129   -0.318255 H        1 UNL1     0.0683
     35 H         -3.681467   -2.449265   1.992796 H        1 UNL1     0.1085
     36 H         -5.49056   -2.21045   2.971534 H        1 UNL1     0.0691
     37 H         -3.418541   1.483205   3.804509 H        1 UNL1     0.0691
     38 H         -4.80265   0.532247   8.381904 H        1 UNL1     0.0385
     39 H         -6.433998   1.110061   8.773538 H        1 UNL1     0.0385
     40 H         -4.94885   2.891007   7.777589 H        1 UNL1     0.0789
     41 H         -6.106852   3.037482   4.597181 H        1 UNL1     0.0623
     42 H         -8.098007   4.274258   3.843611 H        1 UNL1     0.0654
     43 H         -9.698056   4.14905   7.827773 H        1 UNL1     0.0654
     44 H         -7.762073   2.895527   8.593673 H        1 UNL1     0.0623
     45 H         -9.753504   5.867314   4.991082 H        1 UNL1     0.2921
     46 H         -6.598862   -2.653382   5.974213 H        1 UNL1     0.2922
     47 H         0.164446   0.688888   2.239553 H        1 UNL1     0.2126
     48 H         1.11362   -1.945184   0.186091 H        1 UNL1     0.2101
     49 H         -1.785766   0.860858   -1.357278 H        1 UNL1     0.2100
     50 H         -2.661964   -3.369023   -1.090107 H        1 UNL1     0.2102
@<TRIPOS>BOND
     1     1     2    1
     2     1     6    1
     3     2     3    1
     4     3     4    1
     5     3    29    1
     6     3    33    1
     7     4     5    1
     8     5     6    1
     9     5     7    1
    10     5    35    1
    11     7     8    1
    12     8     9   ar
    13     8    13   ar
    14     9    10   ar
    15     9    36    1
    16    10    11   ar
    17    10    26    1
    18    11    12   ar
    19    11    14    1
    20    12    13   ar
    21    12    17    1
    22    13    37    1
    23    14    15    1
    24    14    25    2
    25    15    16    1
    26    15    38    1
    27    15    39    1
    28    16    17    1
    29    16    18    1
    30    16    40    1
    31    18    19   ar
    32    18    23   ar
    33    19    20   ar
    34    19    41    1
    35    20    21   ar
    36    20    42    1
    37    21    22   ar
    38    21    24    1
    39    22    23   ar
    40    22    43    1
    41    23    44    1
    42    24    45    1
    43    26    46    1
    44    27    47    1
    45    28    48    1
    46    29    49    1
    47    30    50    1
    48     1    31    1
    49     1    27    1
    50     2    32    1
    51     2    28    1
    52     4    34    1
    53     4    30    1
