@<TRIPOS>MOLECULE
*****
 50 53 0 0 0
SMALL
GASTEIGER

@<TRIPOS>ATOM
     1 C         -0.346976   -1.350145   1.681523 C.3        1 UNL1     0.1889
     2 C         -0.466969   -0.976346   0.179586 C.3        1 UNL1     0.1342
     3 C         -1.904443   -0.951541   -0.362188 C.3        1 UNL1     0.1174
     4 C         -2.798392   -2.016569   0.277881 C.3        1 UNL1     0.1456
     5 C         -2.656297   -2.063233   1.810198 C.3        1 UNL1     0.2326
     6 O         -1.294331   -2.290798   2.165346 O.3        1 UNL1     -0.3076
     7 O         -3.231317   -0.923144   2.474179 O.3        1 UNL1     -0.4605
     8 C         -3.759959   -1.156481   3.731008 C.ar        1 UNL1     0.1310
     9 C         -4.589471   -2.229333   4.074809 C.ar        1 UNL1     0.0226
     10 C         -5.061471   -2.388915   5.38311 C.ar        1 UNL1     0.1343
     11 C         -4.695669   -1.491817   6.38573 C.ar        1 UNL1     0.1007
     12 C         -3.901208   -0.39366   6.045634 C.ar        1 UNL1     0.1389
     13 C         -3.428903   -0.231961   4.729499 C.ar        1 UNL1     0.0229
     14 C         -5.09688   -1.659259   7.801762 C.2        1 UNL1     0.1740
     15 C         -4.433839   -0.73287   8.778353 C.3        1 UNL1     0.0520
     16 C         -4.345156   0.649667   8.146939 C.3        1 UNL1     0.1322
     17 O         -3.570297   0.60812   6.928359 O.3        1 UNL1     -0.4828
     18 C         -5.697266   1.354767   8.015187 C.ar        1 UNL1     -0.0067
     19 C         -5.76158   2.618525   7.3931 C.ar        1 UNL1     -0.0516
     20 C         -6.974233   3.311691   7.298469 C.ar        1 UNL1     -0.0198
     21 C         -8.125645   2.756377   7.827341 C.ar        1 UNL1     0.1169
     22 C         -8.10044   1.498792   8.416139 C.ar        1 UNL1     -0.0198
     23 C         -6.89138   0.797298   8.494473 C.ar        1 UNL1     -0.0516
     24 O         -9.280859   3.477435   7.750167 O.3        1 UNL1     -0.5068
     25 O         -5.857917   -2.542068   8.189003 O.2        1 UNL1     -0.2917
     26 O         -5.867885   -3.455985   5.652631 O.3        1 UNL1     -0.5058
     27 O         -0.242955   -0.223812   2.537876 O.3        1 UNL1     -0.3648
     28 O         0.264894   -1.946882   -0.591868 O.3        1 UNL1     -0.3841
     29 O         -2.457849   0.362864   -0.271575 O.3        1 UNL1     -0.3863
     30 O         -2.452083   -3.311362   -0.259958 O.3        1 UNL1     -0.3829
     31 H         0.611181   -1.867939   1.799441 H        1 UNL1     0.0937
     32 H         0.0   0.0   0.0 H        1 UNL1     0.0671
     33 H         -1.861654   -1.17664   -1.437 H        1 UNL1     0.0649
     34 H         -3.8463   -1.83109   0.017329 H        1 UNL1     0.0683
     35 H         -3.215944   -2.961222   2.100525 H        1 UNL1     0.1085
     36 H         -4.864162   -2.991542   3.353905 H        1 UNL1     0.0691
     37 H         -2.812779   0.632111   4.4902 H        1 UNL1     0.0691
     38 H         -3.437402   -1.134357   8.99154 H        1 UNL1     0.0385
     39 H         -5.006653   -0.725705   9.711954 H        1 UNL1     0.0385
     40 H         -3.754432   1.278651   8.826603 H        1 UNL1     0.0789
     41 H         -4.870151   3.079941   6.978251 H        1 UNL1     0.0623
     42 H         -7.008667   4.290748   6.827009 H        1 UNL1     0.0654
     43 H         -8.999064   1.048026   8.820112 H        1 UNL1     0.0654
     44 H         -6.910391   -0.187331   8.951626 H        1 UNL1     0.0623
     45 H         -9.164704   4.29784   8.25629 H        1 UNL1     0.2921
     46 H         -5.489816   -3.970905   6.382927 H        1 UNL1     0.2922
     47 H         0.490854   0.341786   2.259517 H        1 UNL1     0.2126
     48 H         1.202925   -1.858717   -0.334852 H        1 UNL1     0.2101
     49 H         -2.019123   0.95021   -0.907451 H        1 UNL1     0.2100
     50 H         -2.684927   -3.314666   -1.211528 H        1 UNL1     0.2102
@<TRIPOS>BOND
     1     1     2    1
     2     1     6    1
     3     2     3    1
     4     3     4    1
     5     3    29    1
     6     3    33    1
     7     4     5    1
     8     5     6    1
     9     5     7    1
    10     5    35    1
    11     7     8    1
    12     8     9   ar
    13     8    13   ar
    14     9    10   ar
    15     9    36    1
    16    10    11   ar
    17    10    26    1
    18    11    12   ar
    19    11    14    1
    20    12    13   ar
    21    12    17    1
    22    13    37    1
    23    14    15    1
    24    14    25    2
    25    15    16    1
    26    15    38    1
    27    15    39    1
    28    16    17    1
    29    16    18    1
    30    16    40    1
    31    18    19   ar
    32    18    23   ar
    33    19    20   ar
    34    19    41    1
    35    20    21   ar
    36    20    42    1
    37    21    22   ar
    38    21    24    1
    39    22    23   ar
    40    22    43    1
    41    23    44    1
    42    24    45    1
    43    26    46    1
    44    27    47    1
    45    28    48    1
    46    29    49    1
    47    30    50    1
    48     1    31    1
    49     1    27    1
    50     2    32    1
    51     2    28    1
    52     4    34    1
    53     4    30    1
