@<TRIPOS>MOLECULE
*****
 50 53 0 0 0
SMALL
GASTEIGER

@<TRIPOS>ATOM
     1 C         -0.324404   -1.315336   1.713318 C.3        1 UNL1     0.1889
     2 C         -0.47466   -0.966953   0.207996 C.3        1 UNL1     0.1342
     3 C         -1.923923   -0.933534   -0.30091 C.3        1 UNL1     0.1174
     4 C         -2.815805   -1.975477   0.378811 C.3        1 UNL1     0.1456
     5 C         -2.63872   -1.996542   1.908046 C.3        1 UNL1     0.2326
     6 O         -1.271773   -2.235048   2.235828 O.3        1 UNL1     -0.3076
     7 O         -3.184064   -0.837533   2.564262 O.3        1 UNL1     -0.4605
     8 C         -3.730543   -1.05116   3.81696 C.ar        1 UNL1     0.1310
     9 C         -4.59569   -2.097038   4.156019 C.ar        1 UNL1     0.0226
     10 C         -5.08373   -2.238553   5.460509 C.ar        1 UNL1     0.1343
     11 C         -4.699167   -1.35051   6.464168 C.ar        1 UNL1     0.1007
     12 C         -3.868306   -0.278248   6.128447 C.ar        1 UNL1     0.1389
     13 C         -3.379827   -0.134648   4.816121 C.ar        1 UNL1     0.0229
     14 C         -5.117631   -1.501778   7.877023 C.2        1 UNL1     0.1740
     15 C         -4.434853   -0.593683   8.85719 C.3        1 UNL1     0.0520
     16 C         -4.298111   0.783796   8.223305 C.3        1 UNL1     0.1322
     17 O         -3.514347   0.715186   7.011663 O.3        1 UNL1     -0.4828
     18 C         -5.626646   1.529865   8.078042 C.ar        1 UNL1     -0.0067
     19 C         -5.954282   2.12681   6.843325 C.ar        1 UNL1     -0.0516
     20 C         -7.139136   2.856644   6.690268 C.ar        1 UNL1     -0.0198
     21 C         -7.999184   3.002699   7.76396 C.ar        1 UNL1     0.1169
     22 C         -7.720294   2.398483   8.982969 C.ar        1 UNL1     -0.0198
     23 C         -6.544472   1.653114   9.131037 C.ar        1 UNL1     -0.0516
     24 O         -9.125117   3.752175   7.588003 O.3        1 UNL1     -0.5068
     25 O         -5.908857   -2.359699   8.25967 O.2        1 UNL1     -0.2917
     26 O         -5.924967   -3.27956   5.725479 O.3        1 UNL1     -0.5058
     27 O         -0.186641   -0.175288   2.546443 O.3        1 UNL1     -0.3648
     28 O         0.227064   -1.960369   -0.562337 O.3        1 UNL1     -0.3841
     29 O         -2.458841   0.389223   -0.221479 O.3        1 UNL1     -0.3863
     30 O         -2.498066   -3.283984   -0.143242 O.3        1 UNL1     -0.3829
     31 H         0.629783   -1.843099   1.818539 H        1 UNL1     0.0937
     32 H         0.0   0.0   0.0 H        1 UNL1     0.0671
     33 H         -1.908904   -1.178341   -1.372154 H        1 UNL1     0.0649
     34 H         -3.867122   -1.781356   0.13912 H        1 UNL1     0.0683
     35 H         -3.202486   -2.881996   2.227445 H        1 UNL1     0.1085
     36 H         -4.887476   -2.852321   3.434542 H        1 UNL1     0.0691
     37 H         -2.735304   0.7094   4.580184 H        1 UNL1     0.0691
     38 H         -3.453156   -1.025112   9.080049 H        1 UNL1     0.0385
     39 H         -5.01526   -0.566413   9.785717 H        1 UNL1     0.0385
     40 H         -3.694202   1.396074   8.906627 H        1 UNL1     0.0789
     41 H         -5.291408   2.034439   5.987922 H        1 UNL1     0.0623
     42 H         -7.374813   3.322221   5.736483 H        1 UNL1     0.0654
     43 H         -8.394177   2.493865   9.825995 H        1 UNL1     0.0654
     44 H         -6.363565   1.185976   10.094313 H        1 UNL1     0.0623
     45 H         -8.858467   4.65589   7.353666 H        1 UNL1     0.2921
     46 H         -5.558216   -3.816684   6.445481 H        1 UNL1     0.2922
     47 H         0.557767   0.367323   2.250995 H        1 UNL1     0.2126
     48 H         1.168263   -1.89678   -0.309686 H        1 UNL1     0.2101
     49 H         -2.021708   0.961584   -0.871949 H        1 UNL1     0.2100
     50 H         -2.752824   -3.301278   -1.089029 H        1 UNL1     0.2102
@<TRIPOS>BOND
     1     1     2    1
     2     1     6    1
     3     2     3    1
     4     3     4    1
     5     3    29    1
     6     3    33    1
     7     4     5    1
     8     5     6    1
     9     5     7    1
    10     5    35    1
    11     7     8    1
    12     8     9   ar
    13     8    13   ar
    14     9    10   ar
    15     9    36    1
    16    10    11   ar
    17    10    26    1
    18    11    12   ar
    19    11    14    1
    20    12    13   ar
    21    12    17    1
    22    13    37    1
    23    14    15    1
    24    14    25    2
    25    15    16    1
    26    15    38    1
    27    15    39    1
    28    16    17    1
    29    16    18    1
    30    16    40    1
    31    18    19   ar
    32    18    23   ar
    33    19    20   ar
    34    19    41    1
    35    20    21   ar
    36    20    42    1
    37    21    22   ar
    38    21    24    1
    39    22    23   ar
    40    22    43    1
    41    23    44    1
    42    24    45    1
    43    26    46    1
    44    27    47    1
    45    28    48    1
    46    29    49    1
    47    30    50    1
    48     1    31    1
    49     1    27    1
    50     2    32    1
    51     2    28    1
    52     4    34    1
    53     4    30    1
