@<TRIPOS>MOLECULE
*****
 50 53 0 0 0
SMALL
GASTEIGER

@<TRIPOS>ATOM
     1 C         -0.34535   -1.336054   1.693073 C.3        1 UNL1     0.1889
     2 C         -0.469225   -0.973543   0.188686 C.3        1 UNL1     0.1342
     3 C         -1.908408   -0.948693   -0.34853 C.3        1 UNL1     0.1174
     4 C         -2.803343   -2.00609   0.302715 C.3        1 UNL1     0.1456
     5 C         -2.656308   -2.041306   1.834872 C.3        1 UNL1     0.2326
     6 O         -1.293844   -2.270133   2.18729 O.3        1 UNL1     -0.3076
     7 O         -3.225787   -0.894418   2.491883 O.3        1 UNL1     -0.4605
     8 C         -3.740753   -1.114042   3.756835 C.ar        1 UNL1     0.1310
     9 C         -4.565127   -2.183915   4.121636 C.ar        1 UNL1     0.0226
     10 C         -5.023008   -2.329131   5.436611 C.ar        1 UNL1     0.1343
     11 C         -4.6478   -1.420201   6.424996 C.ar        1 UNL1     0.1007
     12 C         -3.858469   -0.325024   6.063984 C.ar        1 UNL1     0.1389
     13 C         -3.400369   -0.17778   4.741148 C.ar        1 UNL1     0.0229
     14 C         -5.033741   -1.57196   7.847027 C.2        1 UNL1     0.1740
     15 C         -4.361627   -0.633673   8.805895 C.3        1 UNL1     0.0520
     16 C         -4.281508   0.741674   8.157854 C.3        1 UNL1     0.1322
     17 O         -3.519563   0.687171   6.931665 O.3        1 UNL1     -0.4828
     18 C         -5.635886   1.443568   8.032442 C.ar        1 UNL1     -0.0067
     19 C         -6.006385   2.018532   6.799413 C.ar        1 UNL1     -0.0516
     20 C         -7.216814   2.708719   6.663522 C.ar        1 UNL1     -0.0198
     21 C         -8.060149   2.836939   7.752637 C.ar        1 UNL1     0.1169
     22 C         -7.738433   2.253007   8.970981 C.ar        1 UNL1     -0.0198
     23 C         -6.536628   1.546959   9.102194 C.ar        1 UNL1     -0.0516
     24 O         -9.212773   3.548433   7.592529 O.3        1 UNL1     -0.5068
     25 O         -5.78944   -2.451223   8.252369 O.2        1 UNL1     -0.2917
     26 O         -5.825081   -3.394043   5.72683 O.3        1 UNL1     -0.5058
     27 O         -0.235197   -0.203435   2.540321 O.3        1 UNL1     -0.3648
     28 O         0.257235   -1.95218   -0.577625 O.3        1 UNL1     -0.3841
     29 O         -2.457663   0.368002   -0.266289 O.3        1 UNL1     -0.3863
     30 O         -2.462608   -3.306025   -0.226205 O.3        1 UNL1     -0.3829
     31 H         0.611673   -1.855744   1.811848 H        1 UNL1     0.0937
     32 H         0.0   0.0   0.0 H        1 UNL1     0.0671
     33 H         -1.86984   -1.182233   -1.421699 H        1 UNL1     0.0649
     34 H         -3.851562   -1.819542   0.044184 H        1 UNL1     0.0683
     35 H         -3.217615   -2.935365   2.133993 H        1 UNL1     0.1085
     36 H         -4.846423   -2.954639   3.412426 H        1 UNL1     0.0691
     37 H         -2.787982   0.684258   4.485483 H        1 UNL1     0.0691
     38 H         -3.362445   -1.031479   9.013049 H        1 UNL1     0.0385
     39 H         -4.924515   -0.616554   9.745386 H        1 UNL1     0.0385
     40 H         -3.684454   1.379098   8.823991 H        1 UNL1     0.0789
     41 H         -5.35758   1.939645   5.931958 H        1 UNL1     0.0623
     42 H         -7.485756   3.157871   5.71066 H        1 UNL1     0.0654
     43 H         -8.398576   2.33444   9.826254 H        1 UNL1     0.0654
     44 H         -6.322183   1.094583   10.065633 H        1 UNL1     0.0623
     45 H         -8.979814   4.458768   7.348117 H        1 UNL1     0.2921
     46 H         -5.427388   -3.912632   6.443989 H        1 UNL1     0.2922
     47 H         0.509576   0.34929   2.265245 H        1 UNL1     0.2126
     48 H         1.193043   -1.880282   -0.307762 H        1 UNL1     0.2101
     49 H         -2.019091   0.949194   -0.9079 H        1 UNL1     0.2100
     50 H         -2.698449   -3.315951   -1.176991 H        1 UNL1     0.2102
@<TRIPOS>BOND
     1     1     2    1
     2     1     6    1
     3     2     3    1
     4     3     4    1
     5     3    29    1
     6     3    33    1
     7     4     5    1
     8     5     6    1
     9     5     7    1
    10     5    35    1
    11     7     8    1
    12     8     9   ar
    13     8    13   ar
    14     9    10   ar
    15     9    36    1
    16    10    11   ar
    17    10    26    1
    18    11    12   ar
    19    11    14    1
    20    12    13   ar
    21    12    17    1
    22    13    37    1
    23    14    15    1
    24    14    25    2
    25    15    16    1
    26    15    38    1
    27    15    39    1
    28    16    17    1
    29    16    18    1
    30    16    40    1
    31    18    19   ar
    32    18    23   ar
    33    19    20   ar
    34    19    41    1
    35    20    21   ar
    36    20    42    1
    37    21    22   ar
    38    21    24    1
    39    22    23   ar
    40    22    43    1
    41    23    44    1
    42    24    45    1
    43    26    46    1
    44    27    47    1
    45    28    48    1
    46    29    49    1
    47    30    50    1
    48     1    31    1
    49     1    27    1
    50     2    32    1
    51     2    28    1
    52     4    34    1
    53     4    30    1
