@<TRIPOS>MOLECULE
*****
 50 53 0 0 0
SMALL
GASTEIGER

@<TRIPOS>ATOM
     1 C         -0.334885   -1.344515   1.688472 C.3        1 UNL1     0.1889
     2 C         -0.466445   -0.975326   0.186363 C.3        1 UNL1     0.1342
     3 C         -1.908149   -0.950841   -0.344065 C.3        1 UNL1     0.1174
     4 C         -2.797989   -2.012988   0.306432 C.3        1 UNL1     0.1456
     5 C         -2.64378   -2.054969   1.837712 C.3        1 UNL1     0.2326
     6 O         -1.279252   -2.282729   2.182759 O.3        1 UNL1     -0.3076
     7 O         -3.212442   -0.912245   2.502637 O.3        1 UNL1     -0.4605
     8 C         -3.727911   -1.140321   3.765888 C.ar        1 UNL1     0.1310
     9 C         -4.55329   -2.212028   4.122952 C.ar        1 UNL1     0.0226
     10 C         -5.011623   -2.366099   5.436761 C.ar        1 UNL1     0.1343
     11 C         -4.635884   -1.464466   6.431608 C.ar        1 UNL1     0.1007
     12 C         -3.845527   -0.367454   6.078502 C.ar        1 UNL1     0.1389
     13 C         -3.386972   -0.2113   4.756847 C.ar        1 UNL1     0.0229
     14 C         -5.02231   -1.625896   7.852442 C.2        1 UNL1     0.1740
     15 C         -4.349632   -0.694955   8.818052 C.3        1 UNL1     0.0520
     16 C         -4.268175   0.684849   8.179722 C.3        1 UNL1     0.1322
     17 O         -3.505971   0.63832   6.953366 O.3        1 UNL1     -0.4828
     18 C         -5.621922   1.388767   8.058922 C.ar        1 UNL1     -0.0067
     19 C         -5.98527   1.985671   6.834218 C.ar        1 UNL1     -0.0516
     20 C         -7.195005   2.678084   6.703578 C.ar        1 UNL1     -0.0198
     21 C         -8.044753   2.786731   7.789834 C.ar        1 UNL1     0.1169
     22 C         -7.7301   2.181121   8.999407 C.ar        1 UNL1     -0.0198
     23 C         -6.528957   1.472933   9.125035 C.ar        1 UNL1     -0.0516
     24 O         -9.196546   3.500886   7.635701 O.3        1 UNL1     -0.5068
     25 O         -5.778861   -2.507341   8.251404 O.2        1 UNL1     -0.2917
     26 O         -5.814678   -3.432338   5.719285 O.3        1 UNL1     -0.5058
     27 O         -0.223014   -0.215594   2.540417 O.3        1 UNL1     -0.3648
     28 O         0.258361   -1.948988   -0.587811 O.3        1 UNL1     -0.3841
     29 O         -2.459586   0.364376   -0.253207 O.3        1 UNL1     -0.3863
     30 O         -2.457175   -3.3098   -0.230053 O.3        1 UNL1     -0.3829
     31 H         0.623691   -1.862858   1.800415 H        1 UNL1     0.0937
     32 H         0.0   0.0   0.0 H        1 UNL1     0.0671
     33 H         -1.874105   -1.17936   -1.418467 H        1 UNL1     0.0649
     34 H         -3.847758   -1.82732   0.053619 H        1 UNL1     0.0683
     35 H         -3.201947   -2.951501   2.1353 H        1 UNL1     0.1085
     36 H         -4.835068   -2.977501   3.408269 H        1 UNL1     0.0691
     37 H         -2.773784   0.651991   4.507401 H        1 UNL1     0.0691
     38 H         -3.350842   -1.095064   9.022645 H        1 UNL1     0.0385
     39 H         -4.912739   -0.683963   9.757503 H        1 UNL1     0.0385
     40 H         -3.670743   1.317059   8.850472 H        1 UNL1     0.0789
     41 H         -5.33136   1.922367   5.969322 H        1 UNL1     0.0623
     42 H         -7.458422   3.14419   5.757339 H        1 UNL1     0.0654
     43 H         -8.395275   2.247188   9.852101 H        1 UNL1     0.0654
     44 H         -6.320098   1.00341   10.081472 H        1 UNL1     0.0623
     45 H         -8.962321   4.415466   7.40899 H        1 UNL1     0.2921
     46 H         -5.417608   -3.956301   6.432875 H        1 UNL1     0.2922
     47 H         0.519396   0.33986   2.264449 H        1 UNL1     0.2126
     48 H         1.195269   -1.876488   -0.321954 H        1 UNL1     0.2101
     49 H         -2.025129   0.94938   -0.894153 H        1 UNL1     0.2100
     50 H         -2.697405   -3.315812   -1.179772 H        1 UNL1     0.2102
@<TRIPOS>BOND
     1     1     2    1
     2     1     6    1
     3     2     3    1
     4     3     4    1
     5     3    29    1
     6     3    33    1
     7     4     5    1
     8     5     6    1
     9     5     7    1
    10     5    35    1
    11     7     8    1
    12     8     9   ar
    13     8    13   ar
    14     9    10   ar
    15     9    36    1
    16    10    11   ar
    17    10    26    1
    18    11    12   ar
    19    11    14    1
    20    12    13   ar
    21    12    17    1
    22    13    37    1
    23    14    15    1
    24    14    25    2
    25    15    16    1
    26    15    38    1
    27    15    39    1
    28    16    17    1
    29    16    18    1
    30    16    40    1
    31    18    19   ar
    32    18    23   ar
    33    19    20   ar
    34    19    41    1
    35    20    21   ar
    36    20    42    1
    37    21    22   ar
    38    21    24    1
    39    22    23   ar
    40    22    43    1
    41    23    44    1
    42    24    45    1
    43    26    46    1
    44    27    47    1
    45    28    48    1
    46    29    49    1
    47    30    50    1
    48     1    31    1
    49     1    27    1
    50     2    32    1
    51     2    28    1
    52     4    34    1
    53     4    30    1
