@<TRIPOS>MOLECULE
*****
 50 53 0 0 0
SMALL
GASTEIGER

@<TRIPOS>ATOM
     1 C         -0.370668   -1.397909   1.636844 C.3        1 UNL1     0.1889
     2 C         -0.487796   -0.971325   0.14881 C.3        1 UNL1     0.1342
     3 C         -1.92632   -0.896743   -0.385561 C.3        1 UNL1     0.1174
     4 C         -2.841285   -1.962759   0.222358 C.3        1 UNL1     0.1456
     5 C         -2.694716   -2.063977   1.751618 C.3        1 UNL1     0.2326
     6 O         -1.33684   -2.333229   2.093006 O.3        1 UNL1     -0.3076
     7 O         -3.241974   -0.934469   2.455919 O.3        1 UNL1     -0.4605
     8 C         -3.173712   0.280831   1.798717 C.ar        1 UNL1     0.1310
     9 C         -2.049217   0.779736   1.132454 C.ar        1 UNL1     0.0226
     10 C         -2.084634   2.017931   0.480134 C.ar        1 UNL1     0.1343
     11 C         -3.253789   2.77716   0.458016 C.ar        1 UNL1     0.1007
     12 C         -4.370886   2.308436   1.154562 C.ar        1 UNL1     0.1389
     13 C         -4.334219   1.064634   1.812623 C.ar        1 UNL1     0.0229
     14 C         -3.371928   4.052375   -0.286312 C.2        1 UNL1     0.1740
     15 C         -4.757496   4.61951   -0.386859 C.3        1 UNL1     0.0520
     16 C         -5.455708   4.425814   0.952148 C.3        1 UNL1     0.1322
     17 O         -5.538303   3.023459   1.289268 O.3        1 UNL1     -0.4828
     18 C         -4.904203   5.315318   2.068996 C.ar        1 UNL1     -0.0067
     19 C         -5.70159   6.360069   2.579762 C.ar        1 UNL1     -0.0516
     20 C         -5.21018   7.221515   3.567886 C.ar        1 UNL1     -0.0198
     21 C         -3.92334   7.053619   4.047136 C.ar        1 UNL1     0.1169
     22 C         -3.125903   6.01341   3.587899 C.ar        1 UNL1     -0.0198
     23 C         -3.623642   5.140495   2.613049 C.ar        1 UNL1     -0.0516
     24 O         -3.465733   7.935115   4.981995 O.3        1 UNL1     -0.5068
     25 O         -2.428884   4.589428   -0.8614 O.2        1 UNL1     -0.2917
     26 O         -0.953506   2.447968   -0.150106 O.3        1 UNL1     -0.5058
     27 O         -0.238665   -0.303534   2.529988 O.3        1 UNL1     -0.3648
     28 O         0.219627   -1.931256   -0.657907 O.3        1 UNL1     -0.3841
     29 O         -2.450188   0.425726   -0.248555 O.3        1 UNL1     -0.3863
     30 O         -2.525645   -3.246056   -0.360059 O.3        1 UNL1     -0.3829
     31 H         0.576222   -1.940309   1.733174 H        1 UNL1     0.0937
     32 H         0.0   0.0   0.0 H        1 UNL1     0.0671
     33 H         -1.892408   -1.0865   -1.467487 H        1 UNL1     0.0649
     34 H         -3.88577   -1.745642   -0.027266 H        1 UNL1     0.0683
     35 H         -3.273033   -2.958691   2.014134 H        1 UNL1     0.1085
     36 H         -1.127511   0.212175   1.065732 H        1 UNL1     0.0691
     37 H         -5.21696   0.722716   2.348677 H        1 UNL1     0.0691
     38 H         -5.278621   4.080977   -1.18557 H        1 UNL1     0.0385
     39 H         -4.693408   5.67528   -0.671501 H        1 UNL1     0.0385
     40 H         -6.500419   4.738574   0.820694 H        1 UNL1     0.0789
     41 H         -6.711747   6.518433   2.213492 H        1 UNL1     0.0623
     42 H         -5.830551   8.030727   3.945151 H        1 UNL1     0.0654
     43 H         -2.122098   5.863637   3.96718 H        1 UNL1     0.0654
     44 H         -2.977032   4.332415   2.2848 H        1 UNL1     0.0623
     45 H         -3.537163   7.519322   5.856484 H        1 UNL1     0.2921
     46 H         -1.193853   2.893515   -0.977834 H        1 UNL1     0.2922
     47 H         0.507735   0.253689   2.268743 H        1 UNL1     0.2126
     48 H         1.17179   -1.779295   -0.502902 H        1 UNL1     0.2101
     49 H         -2.9987   0.482316   0.550023 H        1 UNL1     0.2100
     50 H         -2.782744   -3.219743   -1.305004 H        1 UNL1     0.2102
@<TRIPOS>BOND
     1     1     2    1
     2     1     6    1
     3     2     3    1
     4     3     4    1
     5     3    29    1
     6     3    33    1
     7     4     5    1
     8     5     6    1
     9     5     7    1
    10     5    35    1
    11     7     8    1
    12     8     9   ar
    13     8    13   ar
    14     9    10   ar
    15     9    36    1
    16    10    11   ar
    17    10    26    1
    18    11    12   ar
    19    11    14    1
    20    12    13   ar
    21    12    17    1
    22    13    37    1
    23    14    15    1
    24    14    25    2
    25    15    16    1
    26    15    38    1
    27    15    39    1
    28    16    17    1
    29    16    18    1
    30    16    40    1
    31    18    19   ar
    32    18    23   ar
    33    19    20   ar
    34    19    41    1
    35    20    21   ar
    36    20    42    1
    37    21    22   ar
    38    21    24    1
    39    22    23   ar
    40    22    43    1
    41    23    44    1
    42    24    45    1
    43    26    46    1
    44    27    47    1
    45    28    48    1
    46    29    49    1
    47    30    50    1
    48     1    31    1
    49     1    27    1
    50     2    32    1
    51     2    28    1
    52     4    34    1
    53     4    30    1
