@<TRIPOS>MOLECULE
*****
 50 53 0 0 0
SMALL
GASTEIGER

@<TRIPOS>ATOM
     1 C         -0.335337   -1.330416   1.699514 C.3        1 UNL1     0.1889
     2 C         -0.46407   -0.975001   0.193842 C.3        1 UNL1     0.1342
     3 C         -1.904456   -0.959493   -0.340493 C.3        1 UNL1     0.1174
     4 C         -2.79287   -2.01843   0.317146 C.3        1 UNL1     0.1456
     5 C         -2.642522   -2.046325   1.849132 C.3        1 UNL1     0.2326
     6 O         -1.278235   -2.266977   2.199706 O.3        1 UNL1     -0.3076
     7 O         -3.216255   -0.899411   2.502385 O.3        1 UNL1     -0.4605
     8 C         -3.727545   -1.116094   3.769334 C.ar        1 UNL1     0.1310
     9 C         -4.545925   -2.188398   4.140439 C.ar        1 UNL1     0.0226
     10 C         -5.000392   -2.330179   5.456972 C.ar        1 UNL1     0.1343
     11 C         -4.627607   -1.415177   6.440661 C.ar        1 UNL1     0.1007
     12 C         -3.844386   -0.317726   6.073308 C.ar        1 UNL1     0.1389
     13 C         -3.389726   -0.173949   4.748905 C.ar        1 UNL1     0.0229
     14 C         -5.009885   -1.56269   7.864127 C.2        1 UNL1     0.1740
     15 C         -4.340402   -0.61701   8.817558 C.3        1 UNL1     0.0520
     16 C         -4.268341   0.755907   8.163446 C.3        1 UNL1     0.1322
     17 O         -3.508655   0.699841   6.935926 O.3        1 UNL1     -0.4828
     18 C         -5.626391   1.450632   8.037824 C.ar        1 UNL1     -0.0067
     19 C         -6.002226   2.018463   6.803105 C.ar        1 UNL1     -0.0516
     20 C         -7.216293   2.702139   6.666757 C.ar        1 UNL1     -0.0198
     21 C         -8.058009   2.830931   7.757057 C.ar        1 UNL1     0.1169
     22 C         -7.730942   2.253833   8.97723 C.ar        1 UNL1     -0.0198
     23 C         -6.525431   1.554234   9.108986 C.ar        1 UNL1     -0.0516
     24 O         -9.214425   3.536093   7.596279 O.3        1 UNL1     -0.5068
     25 O         -5.76044   -2.443878   8.274811 O.2        1 UNL1     -0.2917
     26 O         -5.796649   -3.397734   5.753427 O.3        1 UNL1     -0.5058
     27 O         -0.228988   -0.193632   2.541654 O.3        1 UNL1     -0.3648
     28 O         0.265595   -1.953372   -0.569759 O.3        1 UNL1     -0.3841
     29 O         -2.459975   0.354847   -0.262775 O.3        1 UNL1     -0.3863
     30 O         -2.446866   -3.318954   -0.206887 O.3        1 UNL1     -0.3829
     31 H         0.624459   -1.844911   1.818538 H        1 UNL1     0.0937
     32 H         0.0   0.0   0.0 H        1 UNL1     0.0671
     33 H         -1.866948   -1.197464   -1.412725 H        1 UNL1     0.0649
     34 H         -3.842517   -1.838119   0.059988 H        1 UNL1     0.0683
     35 H         -3.198834   -2.941817   2.153256 H        1 UNL1     0.1085
     36 H         -4.824902   -2.963534   3.435133 H        1 UNL1     0.0691
     37 H         -2.782089   0.68996   4.488268 H        1 UNL1     0.0691
     38 H         -3.338863   -1.009036   9.024349 H        1 UNL1     0.0385
     39 H         -4.901438   -0.598591   9.758131 H        1 UNL1     0.0385
     40 H         -3.673047   1.399103   8.825597 H        1 UNL1     0.0789
     41 H         -5.354824   1.939007   5.934654 H        1 UNL1     0.0623
     42 H         -7.489383   3.145863   5.712533 H        1 UNL1     0.0654
     43 H         -8.389719   2.335727   9.833511 H        1 UNL1     0.0654
     44 H         -6.3068   1.107066   10.073914 H        1 UNL1     0.0623
     45 H         -8.986492   4.44576   7.344746 H        1 UNL1     0.2921
     46 H         -5.394263   -3.912057   6.471041 H        1 UNL1     0.2922
     47 H         0.513355   0.360825   2.26351 H        1 UNL1     0.2126
     48 H         1.199341   -1.88547   -0.291836 H        1 UNL1     0.2101
     49 H         -2.019842   0.937482   -0.902004 H        1 UNL1     0.2100
     50 H         -2.679383   -3.332206   -1.15845 H        1 UNL1     0.2102
@<TRIPOS>BOND
     1     1     2    1
     2     1     6    1
     3     2     3    1
     4     3     4    1
     5     3    29    1
     6     3    33    1
     7     4     5    1
     8     5     6    1
     9     5     7    1
    10     5    35    1
    11     7     8    1
    12     8     9   ar
    13     8    13   ar
    14     9    10   ar
    15     9    36    1
    16    10    11   ar
    17    10    26    1
    18    11    12   ar
    19    11    14    1
    20    12    13   ar
    21    12    17    1
    22    13    37    1
    23    14    15    1
    24    14    25    2
    25    15    16    1
    26    15    38    1
    27    15    39    1
    28    16    17    1
    29    16    18    1
    30    16    40    1
    31    18    19   ar
    32    18    23   ar
    33    19    20   ar
    34    19    41    1
    35    20    21   ar
    36    20    42    1
    37    21    22   ar
    38    21    24    1
    39    22    23   ar
    40    22    43    1
    41    23    44    1
    42    24    45    1
    43    26    46    1
    44    27    47    1
    45    28    48    1
    46    29    49    1
    47    30    50    1
    48     1    31    1
    49     1    27    1
    50     2    32    1
    51     2    28    1
    52     4    34    1
    53     4    30    1
