@<TRIPOS>MOLECULE
*****
 50 53 0 0 0
SMALL
GASTEIGER

@<TRIPOS>ATOM
     1 C         -0.687087   -1.0349   1.796579 C.3        1 UNL1     0.1889
     2 C         -0.54947   -0.914677   0.254974 C.3        1 UNL1     0.1342
     3 C         -1.881341   -0.929071   -0.510779 C.3        1 UNL1     0.1174
     4 C         -2.928632   -1.838229   0.137088 C.3        1 UNL1     0.1456
     5 C         -3.028633   -1.631885   1.659516 C.3        1 UNL1     0.2326
     6 O         -1.755046   -1.84585   2.26372 O.3        1 UNL1     -0.3076
     7 O         -3.626809   -0.376319   2.02973 O.3        1 UNL1     -0.4605
     8 C         -4.347748   -0.373014   3.210308 C.ar        1 UNL1     0.1310
     9 C         -5.280821   -1.342775   3.59272 C.ar        1 UNL1     0.0226
     10 C         -5.949062   -1.259915   4.820112 C.ar        1 UNL1     0.1343
     11 C         -5.682618   -0.216962   5.706169 C.ar        1 UNL1     0.1007
     12 C         -4.783201   0.77952   5.317769 C.ar        1 UNL1     0.1389
     13 C         -4.113379   0.697392   4.082445 C.ar        1 UNL1     0.0229
     14 C         -6.297307   -0.12574   7.050785 C.2        1 UNL1     0.1740
     15 C         -5.731827   0.931673   7.952815 C.3        1 UNL1     0.0520
     16 C         -5.469495   2.181789   7.124352 C.3        1 UNL1     0.1322
     17 O         -4.527349   1.906162   6.064418 O.3        1 UNL1     -0.4828
     18 C         -6.743356   2.898597   6.670271 C.ar        1 UNL1     -0.0067
     19 C         -6.879767   3.279235   5.319449 C.ar        1 UNL1     -0.0516
     20 C         -8.010773   3.978058   4.880773 C.ar        1 UNL1     -0.0198
     21 C         -9.00669   4.307881   5.782544 C.ar        1 UNL1     0.1169
     22 C         -8.916568   3.917641   7.112368 C.ar        1 UNL1     -0.0198
     23 C         -7.794255   3.202704   7.547496 C.ar        1 UNL1     -0.0516
     24 O         -10.075637   5.021911   5.326566 O.3        1 UNL1     -0.5068
     25 O         -7.157941   -0.903218   7.454916 O.2        1 UNL1     -0.2917
     26 O         -6.848042   -2.237486   5.132801 O.3        1 UNL1     -0.5058
     27 O         -0.646398   0.214779   2.466976 O.3        1 UNL1     -0.3648
     28 O         0.23062   -2.026969   -0.22144 O.3        1 UNL1     -0.3841
     29 O         -2.358524   0.401091   -0.723144 O.3        1 UNL1     -0.3863
     30 O         -2.585186   -3.216695   -0.122845 O.3        1 UNL1     -0.3829
     31 H         0.20687   -1.559969   2.150448 H        1 UNL1     0.0937
     32 H         0.0   0.0   -0.0 H        1 UNL1     0.0671
     33 H         -1.686919   -1.332972   -1.514165 H        1 UNL1     0.0649
     34 H         -3.909855   -1.661235   -0.317088 H        1 UNL1     0.0683
     35 H         -3.681703   -2.447398   1.994653 H        1 UNL1     0.1085
     36 H         -5.49085   -2.207667   2.973067 H        1 UNL1     0.0691
     37 H         -3.418729   1.486613   3.80301 H        1 UNL1     0.0691
     38 H         -4.80318   0.539641   8.381127 H        1 UNL1     0.0385
     39 H         -6.434529   1.11786   8.772158 H        1 UNL1     0.0385
     40 H         -4.94924   2.897888   7.77478 H        1 UNL1     0.0789
     41 H         -6.107739   3.040214   4.593851 H        1 UNL1     0.0623
     42 H         -8.098781   4.276399   3.839015 H        1 UNL1     0.0654
     43 H         -9.697695   4.157584   7.823829 H        1 UNL1     0.0654
     44 H         -7.761825   2.904685   8.591037 H        1 UNL1     0.0623
     45 H         -9.752878   5.869299   4.979471 H        1 UNL1     0.2921
     46 H         -6.599369   -2.647975   5.976052 H        1 UNL1     0.2922
     47 H         0.16563   0.689605   2.241122 H        1 UNL1     0.2126
     48 H         1.108079   -1.954581   0.20112 H        1 UNL1     0.2101
     49 H         -1.78554   0.859827   -1.358002 H        1 UNL1     0.2100
     50 H         -2.662036   -3.369843   -1.087392 H        1 UNL1     0.2102
@<TRIPOS>BOND
     1     1     2    1
     2     1     6    1
     3     2     3    1
     4     3     4    1
     5     3    29    1
     6     3    33    1
     7     4     5    1
     8     5     6    1
     9     5     7    1
    10     5    35    1
    11     7     8    1
    12     8     9   ar
    13     8    13   ar
    14     9    10   ar
    15     9    36    1
    16    10    11   ar
    17    10    26    1
    18    11    12   ar
    19    11    14    1
    20    12    13   ar
    21    12    17    1
    22    13    37    1
    23    14    15    1
    24    14    25    2
    25    15    16    1
    26    15    38    1
    27    15    39    1
    28    16    17    1
    29    16    18    1
    30    16    40    1
    31    18    19   ar
    32    18    23   ar
    33    19    20   ar
    34    19    41    1
    35    20    21   ar
    36    20    42    1
    37    21    22   ar
    38    21    24    1
    39    22    23   ar
    40    22    43    1
    41    23    44    1
    42    24    45    1
    43    26    46    1
    44    27    47    1
    45    28    48    1
    46    29    49    1
    47    30    50    1
    48     1    31    1
    49     1    27    1
    50     2    32    1
    51     2    28    1
    52     4    34    1
    53     4    30    1
