@<TRIPOS>MOLECULE
*****
 50 53 0 0 0
SMALL
GASTEIGER

@<TRIPOS>ATOM
     1 C         -0.257217   -1.398186   1.658228 C.3        1 UNL1     0.1889
     2 C         -0.446749   -0.986876   0.173357 C.3        1 UNL1     0.1342
     3 C         -1.906545   -0.967169   -0.305261 C.3        1 UNL1     0.1174
     4 C         -2.758801   -2.060451   0.343978 C.3        1 UNL1     0.1456
     5 C         -2.549882   -2.145265   1.866976 C.3        1 UNL1     0.2326
     6 O         -1.17112   -2.363776   2.157038 O.3        1 UNL1     -0.3076
     7 O         -3.109519   -1.030736   2.585274 O.3        1 UNL1     -0.4605
     8 C         -3.569977   -1.301503   3.861281 C.ar        1 UNL1     0.1310
     9 C         -4.363048   -2.396384   4.221245 C.ar        1 UNL1     0.0226
     10 C         -4.765572   -2.593566   5.547516 C.ar        1 UNL1     0.1343
     11 C         -4.36455   -1.71274   6.551093 C.ar        1 UNL1     0.1007
     12 C         -3.606714   -0.593271   6.197175 C.ar        1 UNL1     0.1389
     13 C         -3.204316   -0.393792   4.863115 C.ar        1 UNL1     0.0229
     14 C         -4.690806   -1.918928   7.981197 C.2        1 UNL1     0.1740
     15 C         -3.99477   -1.002944   8.944554 C.3        1 UNL1     0.0520
     16 C         -3.961181   0.394728   8.341775 C.3        1 UNL1     0.1322
     17 O         -3.248339   0.394254   7.085222 O.3        1 UNL1     -0.4828
     18 C         -5.329786   1.078396   8.294436 C.ar        1 UNL1     -0.0067
     19 C         -5.757983   1.688794   7.097659 C.ar        1 UNL1     -0.0516
     20 C         -6.983017   2.363457   7.033749 C.ar        1 UNL1     -0.0198
     21 C         -7.783772   2.440925   8.15919 C.ar        1 UNL1     0.1169
     22 C         -7.40477   1.821273   9.342925 C.ar        1 UNL1     -0.0198
     23 C         -6.188303   1.13078   9.401955 C.ar        1 UNL1     -0.0516
     24 O         -8.952343   3.13864   8.069544 O.3        1 UNL1     -0.5068
     25 O         -5.416471   -2.823595   8.385514 O.2        1 UNL1     -0.2917
     26 O         -5.539431   -3.680596   5.832289 O.3        1 UNL1     -0.5058
     27 O         -0.129998   -0.293341   2.539091 O.3        1 UNL1     -0.3648
     28 O         0.262836   -1.927014   -0.654492 O.3        1 UNL1     -0.3841
     29 O         -2.47157   0.336886   -0.155868 O.3        1 UNL1     -0.3863
     30 O         -2.420282   -3.335981   -0.242639 O.3        1 UNL1     -0.3829
     31 H         0.711422   -1.906004   1.720974 H        1 UNL1     0.0937
     32 H         0.0   0.0   0.0 H        1 UNL1     0.0671
     33 H         -1.907614   -1.163489   -1.386546 H        1 UNL1     0.0649
     34 H         -3.819209   -1.882276   0.133765 H        1 UNL1     0.0683
     35 H         -3.085377   -3.057956   2.157009 H        1 UNL1     0.1085
     36 H         -4.661094   -3.147053   3.497515 H        1 UNL1     0.0691
     37 H         -2.615567   0.486256   4.613347 H        1 UNL1     0.0691
     38 H         -2.982276   -1.391281   9.098099 H        1 UNL1     0.0385
     39 H         -4.519689   -1.026866   9.905629 H        1 UNL1     0.0385
     40 H         -3.347414   1.01878   9.005378 H        1 UNL1     0.0789
     41 H         -5.143416   1.649941   6.202981 H        1 UNL1     0.0623
     42 H         -7.296635   2.84027   6.108382 H        1 UNL1     0.0654
     43 H         -8.03119   1.8629   10.225973 H        1 UNL1     0.0654
     44 H         -5.92866   0.649501   10.339932 H        1 UNL1     0.0623
     45 H         -8.743105   4.05978   7.844961 H        1 UNL1     0.2921
     46 H         -5.105608   -4.216706   6.514781 H        1 UNL1     0.2922
     47 H         0.594836   0.280421   2.254006 H        1 UNL1     0.2126
     48 H         1.207212   -1.85116   -0.41757 H        1 UNL1     0.2101
     49 H         -2.06187   0.948485   -0.788234 H        1 UNL1     0.2100
     50 H         -2.693921   -3.317453   -1.183113 H        1 UNL1     0.2102
@<TRIPOS>BOND
     1     1     2    1
     2     1     6    1
     3     2     3    1
     4     3     4    1
     5     3    29    1
     6     3    33    1
     7     4     5    1
     8     5     6    1
     9     5     7    1
    10     5    35    1
    11     7     8    1
    12     8     9   ar
    13     8    13   ar
    14     9    10   ar
    15     9    36    1
    16    10    11   ar
    17    10    26    1
    18    11    12   ar
    19    11    14    1
    20    12    13   ar
    21    12    17    1
    22    13    37    1
    23    14    15    1
    24    14    25    2
    25    15    16    1
    26    15    38    1
    27    15    39    1
    28    16    17    1
    29    16    18    1
    30    16    40    1
    31    18    19   ar
    32    18    23   ar
    33    19    20   ar
    34    19    41    1
    35    20    21   ar
    36    20    42    1
    37    21    22   ar
    38    21    24    1
    39    22    23   ar
    40    22    43    1
    41    23    44    1
    42    24    45    1
    43    26    46    1
    44    27    47    1
    45    28    48    1
    46    29    49    1
    47    30    50    1
    48     1    31    1
    49     1    27    1
    50     2    32    1
    51     2    28    1
    52     4    34    1
    53     4    30    1
