@<TRIPOS>MOLECULE
*****
 50 53 0 0 0
SMALL
GASTEIGER

@<TRIPOS>ATOM
     1 C         0.91853   0.039046   1.981308 C.3        1 UNL1     0.1889
     2 C         -0.322209   0.02219   1.048452 C.3        1 UNL1     0.1342
     3 C         -1.291953   1.1967   1.249911 C.3        1 UNL1     0.1174
     4 C         -1.387154   1.643879   2.710762 C.3        1 UNL1     0.1456
     5 C         -0.005734   1.788832   3.374864 C.3        1 UNL1     0.2326
     6 O         0.707746   0.557583   3.286331 O.3        1 UNL1     -0.3076
     7 O         0.74765   2.915476   2.890707 O.3        1 UNL1     -0.4605
     8 C         1.60067   3.511198   3.802299 C.ar        1 UNL1     0.1310
     9 C         1.275494   3.83674   5.123504 C.ar        1 UNL1     0.0226
     10 C         2.217039   4.424292   5.976837 C.ar        1 UNL1     0.1343
     11 C         3.515086   4.678981   5.536325 C.ar        1 UNL1     0.1007
     12 C         3.839582   4.396033   4.206879 C.ar        1 UNL1     0.1389
     13 C         2.891903   3.80769   3.348283 C.ar        1 UNL1     0.0229
     14 C         4.573558   5.220665   6.41971 C.2        1 UNL1     0.1740
     15 C         5.960212   5.221608   5.84635 C.3        1 UNL1     0.0520
     16 C         5.875888   5.630461   4.382216 C.3        1 UNL1     0.1322
     17 O         5.053301   4.705002   3.637941 O.3        1 UNL1     -0.4828
     18 C         5.520366   7.104503   4.173586 C.ar        1 UNL1     -0.0067
     19 C         4.500399   7.448708   3.26287 C.ar        1 UNL1     -0.0516
     20 C         4.182614   8.789101   3.013226 C.ar        1 UNL1     -0.0198
     21 C         4.880871   9.792453   3.660951 C.ar        1 UNL1     0.1169
     22 C         5.86781   9.484434   4.588267 C.ar        1 UNL1     -0.0198
     23 C         6.173213   8.143798   4.851856 C.ar        1 UNL1     -0.0516
     24 O         4.569324   11.086775   3.364186 O.3        1 UNL1     -0.5068
     25 O         4.371112   5.576899   7.577551 O.2        1 UNL1     -0.2917
     26 O         1.836083   4.718303   7.253557 O.3        1 UNL1     -0.5058
     27 O         2.073476   0.597941   1.375898 O.3        1 UNL1     -0.3648
     28 O         -1.060269   -1.189499   1.292961 O.3        1 UNL1     -0.3841
     29 O         -0.978429   2.271217   0.361515 O.3        1 UNL1     -0.3863
     30 O         -2.159704   0.67557   3.453215 O.3        1 UNL1     -0.3829
     31 H         1.188303   -1.007213   2.161986 H        1 UNL1     0.0937
     32 H         0.0   0.0   -0.0 H        1 UNL1     0.0671
     33 H         -2.294967   0.857751   0.955299 H        1 UNL1     0.0649
     34 H         -1.921571   2.598123   2.775705 H        1 UNL1     0.0683
     35 H         -0.237479   1.947624   4.435504 H        1 UNL1     0.1085
     36 H         0.300647   3.612737   5.542571 H        1 UNL1     0.0691
     37 H         3.169121   3.598197   2.317382 H        1 UNL1     0.0691
     38 H         6.362515   4.208325   5.95092 H        1 UNL1     0.0385
     39 H         6.589696   5.901524   6.430509 H        1 UNL1     0.0385
     40 H         6.880352   5.510414   3.954242 H        1 UNL1     0.0789
     41 H         3.943859   6.679852   2.734878 H        1 UNL1     0.0623
     42 H         3.402128   9.041937   2.299834 H        1 UNL1     0.0654
     43 H         6.410527   10.262068   5.112343 H        1 UNL1     0.0654
     44 H         6.942668   7.939459   5.590118 H        1 UNL1     0.0623
     45 H         4.735856   11.233323   2.418931 H        1 UNL1     0.2921
     46 H         2.432708   4.277345   7.878862 H        1 UNL1     0.2922
     47 H         2.278148   0.133058   0.552579 H        1 UNL1     0.2126
     48 H         -0.469145   -1.929765   1.055664 H        1 UNL1     0.2101
     49 H         -1.185448   2.015637   -0.551511 H        1 UNL1     0.2100
     50 H         -3.078465   0.69883   3.114025 H        1 UNL1     0.2102
@<TRIPOS>BOND
     1     1     2    1
     2     1     6    1
     3     2     3    1
     4     3     4    1
     5     3    29    1
     6     3    33    1
     7     4     5    1
     8     5     6    1
     9     5     7    1
    10     5    35    1
    11     7     8    1
    12     8     9   ar
    13     8    13   ar
    14     9    10   ar
    15     9    36    1
    16    10    11   ar
    17    10    26    1
    18    11    12   ar
    19    11    14    1
    20    12    13   ar
    21    12    17    1
    22    13    37    1
    23    14    15    1
    24    14    25    2
    25    15    16    1
    26    15    38    1
    27    15    39    1
    28    16    17    1
    29    16    18    1
    30    16    40    1
    31    18    19   ar
    32    18    23   ar
    33    19    20   ar
    34    19    41    1
    35    20    21   ar
    36    20    42    1
    37    21    22   ar
    38    21    24    1
    39    22    23   ar
    40    22    43    1
    41    23    44    1
    42    24    45    1
    43    26    46    1
    44    27    47    1
    45    28    48    1
    46    29    49    1
    47    30    50    1
    48     1    31    1
    49     1    27    1
    50     2    32    1
    51     2    28    1
    52     4    34    1
    53     4    30    1
