@<TRIPOS>MOLECULE
*****
 50 53 0 0 0
SMALL
GASTEIGER

@<TRIPOS>ATOM
     1 C         -0.33612   -1.331455   1.698545 C.3        1 UNL1     0.1889
     2 C         -0.463464   -0.975478   0.192888 C.3        1 UNL1     0.1342
     3 C         -1.903262   -0.960948   -0.343056 C.3        1 UNL1     0.1174
     4 C         -2.791519   -2.020927   0.313115 C.3        1 UNL1     0.1456
     5 C         -2.642866   -2.049377   1.845257 C.3        1 UNL1     0.2326
     6 O         -1.278788   -2.269033   2.197263 O.3        1 UNL1     -0.3076
     7 O         -3.2183   -0.903238   2.498374 O.3        1 UNL1     -0.4605
     8 C         -3.730827   -1.120916   3.764653 C.ar        1 UNL1     0.1310
     9 C         -4.548718   -2.194074   4.134363 C.ar        1 UNL1     0.0226
     10 C         -5.004542   -2.336826   5.450322 C.ar        1 UNL1     0.1343
     11 C         -4.633633   -1.421947   6.434835 C.ar        1 UNL1     0.1007
     12 C         -3.850927   -0.323672   6.068849 C.ar        1 UNL1     0.1389
     13 C         -3.394903   -0.178922   4.745021 C.ar        1 UNL1     0.0229
     14 C         -5.017382   -1.570416   7.857806 C.2        1 UNL1     0.1740
     15 C         -4.349768   -0.624595   8.812407 C.3        1 UNL1     0.0520
     16 C         -4.278132   0.748673   8.158986 C.3        1 UNL1     0.1322
     17 O         -3.517023   0.693794   6.932295 O.3        1 UNL1     -0.4828
     18 C         -5.636626   1.442308   8.032149 C.ar        1 UNL1     -0.0067
     19 C         -6.011556   2.01037   6.797261 C.ar        1 UNL1     -0.0516
     20 C         -7.226046   2.693083   6.659854 C.ar        1 UNL1     -0.0198
     21 C         -8.069093   2.82068   7.749266 C.ar        1 UNL1     0.1169
     22 C         -7.742907   2.243315   8.969549 C.ar        1 UNL1     -0.0198
     23 C         -6.536955   1.544674   9.102347 C.ar        1 UNL1     -0.0516
     24 O         -9.225923   3.524937   7.587504 O.3        1 UNL1     -0.5068
     25 O         -5.767653   -2.452419   8.267256 O.2        1 UNL1     -0.2917
     26 O         -5.800229   -3.405184   5.74541 O.3        1 UNL1     -0.5058
     27 O         -0.231675   -0.194957   2.541309 O.3        1 UNL1     -0.3648
     28 O         0.267883   -1.952893   -0.570328 O.3        1 UNL1     -0.3841
     29 O         -2.459977   0.352889   -0.265378 O.3        1 UNL1     -0.3863
     30 O         -2.443829   -3.320924   -0.211106 O.3        1 UNL1     -0.3829
     31 H         0.623976   -1.845192   1.818418 H        1 UNL1     0.0937
     32 H         0.0   0.0   0.0 H        1 UNL1     0.0671
     33 H         -1.86435   -1.19841   -1.415351 H        1 UNL1     0.0649
     34 H         -3.841028   -1.841386   0.054859 H        1 UNL1     0.0683
     35 H         -3.198762   -2.945472   2.148359 H        1 UNL1     0.1085
     36 H         -4.826249   -2.969132   3.428401 H        1 UNL1     0.0691
     37 H         -2.787703   0.685615   4.485449 H        1 UNL1     0.0691
     38 H         -3.348132   -1.015868   9.020148 H        1 UNL1     0.0385
     39 H         -4.911875   -0.607068   9.752358 H        1 UNL1     0.0385
     40 H         -3.684125   1.392076   8.82209 H        1 UNL1     0.0789
     41 H         -5.363113   1.931847   5.929502 H        1 UNL1     0.0623
     42 H         -7.498439   3.137   5.705521 H        1 UNL1     0.0654
     43 H         -8.402714   2.324272   9.825126 H        1 UNL1     0.0654
     44 H         -6.319029   1.097262   10.067321 H        1 UNL1     0.0623
     45 H         -8.998475   4.434908   7.336631 H        1 UNL1     0.2921
     46 H         -5.398215   -3.919486   6.463246 H        1 UNL1     0.2922
     47 H         0.510511   0.360251   2.264245 H        1 UNL1     0.2126
     48 H         1.201258   -1.884327   -0.291327 H        1 UNL1     0.2101
     49 H         -2.019619   0.936179   -0.903853 H        1 UNL1     0.2100
     50 H         -2.675268   -3.33395   -1.162935 H        1 UNL1     0.2102
@<TRIPOS>BOND
     1     1     2    1
     2     1     6    1
     3     2     3    1
     4     3     4    1
     5     3    29    1
     6     3    33    1
     7     4     5    1
     8     5     6    1
     9     5     7    1
    10     5    35    1
    11     7     8    1
    12     8     9   ar
    13     8    13   ar
    14     9    10   ar
    15     9    36    1
    16    10    11   ar
    17    10    26    1
    18    11    12   ar
    19    11    14    1
    20    12    13   ar
    21    12    17    1
    22    13    37    1
    23    14    15    1
    24    14    25    2
    25    15    16    1
    26    15    38    1
    27    15    39    1
    28    16    17    1
    29    16    18    1
    30    16    40    1
    31    18    19   ar
    32    18    23   ar
    33    19    20   ar
    34    19    41    1
    35    20    21   ar
    36    20    42    1
    37    21    22   ar
    38    21    24    1
    39    22    23   ar
    40    22    43    1
    41    23    44    1
    42    24    45    1
    43    26    46    1
    44    27    47    1
    45    28    48    1
    46    29    49    1
    47    30    50    1
    48     1    31    1
    49     1    27    1
    50     2    32    1
    51     2    28    1
    52     4    34    1
    53     4    30    1
