@<TRIPOS>MOLECULE
*****
 50 53 0 0 0
SMALL
GASTEIGER

@<TRIPOS>ATOM
     1 C         1.118225   -1.514435   1.107638 C.3        1 UNL1     0.1889
     2 C         -0.211918   -0.881929   0.617133 C.3        1 UNL1     0.1342
     3 C         -1.185808   -0.487017   1.737869 C.3        1 UNL1     0.1174
     4 C         -1.140248   -1.446958   2.929319 C.3        1 UNL1     0.1456
     5 C         0.298474   -1.772574   3.370245 C.3        1 UNL1     0.2326
     6 O         1.030801   -2.317923   2.275183 O.3        1 UNL1     -0.3076
     7 O         0.967745   -0.667337   4.00416 O.3        1 UNL1     -0.4605
     8 C         2.163021   -0.272702   3.430482 C.ar        1 UNL1     0.1310
     9 C         3.346066   -1.019494   3.427703 C.ar        1 UNL1     0.0226
     10 C         4.503476   -0.539478   2.803293 C.ar        1 UNL1     0.1343
     11 C         4.499181   0.689694   2.145296 C.ar        1 UNL1     0.1007
     12 C         3.335552   1.462853   2.176544 C.ar        1 UNL1     0.1389
     13 C         2.172682   0.981153   2.806725 C.ar        1 UNL1     0.0229
     14 C         5.668706   1.207102   1.397866 C.2        1 UNL1     0.1740
     15 C         5.418782   2.432023   0.568013 C.3        1 UNL1     0.0520
     16 C         4.513362   3.370121   1.354234 C.3        1 UNL1     0.1322
     17 O         3.252132   2.732998   1.65497 O.3        1 UNL1     -0.4828
     18 C         5.197881   4.021765   2.558193 C.ar        1 UNL1     -0.0067
     19 C         4.533109   5.047238   3.261541 C.ar        1 UNL1     -0.0516
     20 C         5.149813   5.69669   4.337575 C.ar        1 UNL1     -0.0198
     21 C         6.431002   5.335725   4.71452 C.ar        1 UNL1     0.1169
     22 C         7.098375   4.306837   4.062722 C.ar        1 UNL1     -0.0198
     23 C         6.474741   3.644675   2.998448 C.ar        1 UNL1     -0.0516
     24 O         7.014009   6.016264   5.742804 O.3        1 UNL1     -0.5068
     25 O         6.760399   0.64474   1.376847 O.2        1 UNL1     -0.2917
     26 O         5.624684   -1.316209   2.83745 O.3        1 UNL1     -0.5058
     27 O         2.188967   -0.587239   1.18891 O.3        1 UNL1     -0.3648
     28 O         -0.888649   -1.836271   -0.221899 O.3        1 UNL1     -0.3841
     29 O         -0.994532   0.877038   2.118527 O.3        1 UNL1     -0.3863
     30 O         -1.805853   -2.677739   2.571773 O.3        1 UNL1     -0.3829
     31 H         1.43256   -2.222112   0.332741 H        1 UNL1     0.0937
     32 H         0.0   0.0   0.0 H        1 UNL1     0.0671
     33 H         -2.204819   -0.535762   1.329262 H        1 UNL1     0.0649
     34 H         -1.68976   -1.019416   3.775277 H        1 UNL1     0.0683
     35 H         0.174198   -2.578865   4.103955 H        1 UNL1     0.1085
     36 H         3.398211   -2.006782   3.873421 H        1 UNL1     0.0691
     37 H         1.280035   1.602882   2.818026 H        1 UNL1     0.0691
     38 H         4.940342   2.109441   -0.362881 H        1 UNL1     0.0385
     39 H         6.378102   2.896912   0.316294 H        1 UNL1     0.0385
     40 H         4.248922   4.200559   0.68568 H        1 UNL1     0.0789
     41 H         3.530513   5.355204   2.97939 H        1 UNL1     0.0623
     42 H         4.631433   6.494038   4.864387 H        1 UNL1     0.0654
     43 H         8.096064   4.005936   4.359345 H        1 UNL1     0.0654
     44 H         7.021301   2.838447   2.518745 H        1 UNL1     0.0623
     45 H         7.732198   6.560959   5.381932 H        1 UNL1     0.2921
     46 H         5.58672   -1.970749   2.122224 H        1 UNL1     0.2922
     47 H         1.878263   0.251586   1.557281 H        1 UNL1     0.2126
     48 H         -1.833809   -1.801943   0.021468 H        1 UNL1     0.2101
     49 H         -1.808356   1.381243   1.959592 H        1 UNL1     0.2100
     50 H         -1.117613   -3.346962   2.376379 H        1 UNL1     0.2102
@<TRIPOS>BOND
     1     1     2    1
     2     1     6    1
     3     2     3    1
     4     3     4    1
     5     3    29    1
     6     3    33    1
     7     4     5    1
     8     5     6    1
     9     5     7    1
    10     5    35    1
    11     7     8    1
    12     8     9   ar
    13     8    13   ar
    14     9    10   ar
    15     9    36    1
    16    10    11   ar
    17    10    26    1
    18    11    12   ar
    19    11    14    1
    20    12    13   ar
    21    12    17    1
    22    13    37    1
    23    14    15    1
    24    14    25    2
    25    15    16    1
    26    15    38    1
    27    15    39    1
    28    16    17    1
    29    16    18    1
    30    16    40    1
    31    18    19   ar
    32    18    23   ar
    33    19    20   ar
    34    19    41    1
    35    20    21   ar
    36    20    42    1
    37    21    22   ar
    38    21    24    1
    39    22    23   ar
    40    22    43    1
    41    23    44    1
    42    24    45    1
    43    26    46    1
    44    27    47    1
    45    28    48    1
    46    29    49    1
    47    30    50    1
    48     1    31    1
    49     1    27    1
    50     2    32    1
    51     2    28    1
    52     4    34    1
    53     4    30    1
