@<TRIPOS>MOLECULE
*****
 50 53 0 0 0
SMALL
GASTEIGER

@<TRIPOS>ATOM
     1 C         -0.331962   -1.324601   1.70471 C.3        1 UNL1     0.1889
     2 C         -0.470091   -0.970977   0.19945 C.3        1 UNL1     0.1342
     3 C         -1.914588   -0.94518   -0.323263 C.3        1 UNL1     0.1174
     4 C         -2.805901   -1.99591   0.343555 C.3        1 UNL1     0.1456
     5 C         -2.643385   -2.022145   1.874328 C.3        1 UNL1     0.2326
     6 O         -1.278072   -2.252822   2.214294 O.3        1 UNL1     -0.3076
     7 O         -3.202834   -0.869566   2.529996 O.3        1 UNL1     -0.4605
     8 C         -3.705533   -1.079893   3.801445 C.ar        1 UNL1     0.1310
     9 C         -4.529239   -2.145067   4.1812 C.ar        1 UNL1     0.0226
     10 C         -4.974133   -2.280849   5.50163 C.ar        1 UNL1     0.1343
     11 C         -4.586263   -1.366974   6.480522 C.ar        1 UNL1     0.1007
     12 C         -3.797487   -0.276371   6.104756 C.ar        1 UNL1     0.1389
     13 C         -3.352448   -0.13861   4.776451 C.ar        1 UNL1     0.0229
     14 C         -4.958151   -1.508854   7.907309 C.2        1 UNL1     0.1740
     15 C         -4.273606   -0.566681   8.85349 C.3        1 UNL1     0.0520
     16 C         -4.196113   0.804417   8.19619 C.3        1 UNL1     0.1322
     17 O         -3.446846   0.740131   6.962684 O.3        1 UNL1     -0.4828
     18 C         -5.549665   1.50952   8.08021 C.ar        1 UNL1     -0.0067
     19 C         -5.931029   2.077989   6.847482 C.ar        1 UNL1     -0.0516
     20 C         -7.140779   2.770897   6.719634 C.ar        1 UNL1     -0.0198
     21 C         -7.972614   2.908294   7.816448 C.ar        1 UNL1     0.1169
     22 C         -7.640205   2.330913   9.035043 C.ar        1 UNL1     -0.0198
     23 C         -6.439171   1.622141   9.158398 C.ar        1 UNL1     -0.0516
     24 O         -9.124747   3.62219   7.663666 O.3        1 UNL1     -0.5068
     25 O         -5.712222   -2.383376   8.325728 O.2        1 UNL1     -0.2917
     26 O         -5.776284   -3.341586   5.806549 O.3        1 UNL1     -0.5058
     27 O         -0.209922   -0.187128   2.543786 O.3        1 UNL1     -0.3648
     28 O         0.245703   -1.956443   -0.568144 O.3        1 UNL1     -0.3841
     29 O         -2.459173   0.373611   -0.243578 O.3        1 UNL1     -0.3863
     30 O         -2.474322   -3.30007   -0.180764 O.3        1 UNL1     -0.3829
     31 H         0.624715   -1.846374   1.816964 H        1 UNL1     0.0937
     32 H         0.0   0.0   0.0 H        1 UNL1     0.0671
     33 H         -1.887618   -1.185423   -1.395306 H        1 UNL1     0.0649
     34 H         -3.856153   -1.807861   0.094538 H        1 UNL1     0.0683
     35 H         -3.204199   -2.912689   2.184649 H        1 UNL1     0.1085
     36 H         -4.819963   -2.9193   3.479656 H        1 UNL1     0.0691
     37 H         -2.740206   0.72003   4.509261 H        1 UNL1     0.0691
     38 H         -3.273522   -0.966154   9.052936 H        1 UNL1     0.0385
     39 H         -4.826853   -0.542128   9.798526 H        1 UNL1     0.0385
     40 H         -3.590473   1.444157   8.852279 H        1 UNL1     0.0789
     41 H         -5.291315   1.991859   5.973984 H        1 UNL1     0.0623
     42 H         -7.418105   3.214978   5.766799 H        1 UNL1     0.0654
     43 H         -8.291373   2.419547   9.896458 H        1 UNL1     0.0654
     44 H         -6.216241   1.175062   10.122383 H        1 UNL1     0.0623
     45 H         -8.891659   4.530315   7.411285 H        1 UNL1     0.2921
     46 H         -5.372814   -3.85693   6.52282 H        1 UNL1     0.2922
     47 H         0.533607   0.361697   2.257753 H        1 UNL1     0.2126
     48 H         1.183979   -1.887583   -0.306173 H        1 UNL1     0.2101
     49 H         -2.025475   0.949553   -0.893187 H        1 UNL1     0.2100
     50 H         -2.719854   -3.315141   -1.129025 H        1 UNL1     0.2102
@<TRIPOS>BOND
     1     1     2    1
     2     1     6    1
     3     2     3    1
     4     3     4    1
     5     3    29    1
     6     3    33    1
     7     4     5    1
     8     5     6    1
     9     5     7    1
    10     5    35    1
    11     7     8    1
    12     8     9   ar
    13     8    13   ar
    14     9    10   ar
    15     9    36    1
    16    10    11   ar
    17    10    26    1
    18    11    12   ar
    19    11    14    1
    20    12    13   ar
    21    12    17    1
    22    13    37    1
    23    14    15    1
    24    14    25    2
    25    15    16    1
    26    15    38    1
    27    15    39    1
    28    16    17    1
    29    16    18    1
    30    16    40    1
    31    18    19   ar
    32    18    23   ar
    33    19    20   ar
    34    19    41    1
    35    20    21   ar
    36    20    42    1
    37    21    22   ar
    38    21    24    1
    39    22    23   ar
    40    22    43    1
    41    23    44    1
    42    24    45    1
    43    26    46    1
    44    27    47    1
    45    28    48    1
    46    29    49    1
    47    30    50    1
    48     1    31    1
    49     1    27    1
    50     2    32    1
    51     2    28    1
    52     4    34    1
    53     4    30    1
