@<TRIPOS>MOLECULE
*****
 50 53 0 0 0
SMALL
GASTEIGER

@<TRIPOS>ATOM
     1 C         1.453695   -0.42395   1.574116 C.3        1 UNL1     0.1889
     2 C         0.052122   0.040859   1.095069 C.3        1 UNL1     0.1342
     3 C         -0.352016   1.447052   1.563854 C.3        1 UNL1     0.1174
     4 C         0.174087   1.780561   2.962104 C.3        1 UNL1     0.1456
     5 C         1.658675   1.412317   3.137486 C.3        1 UNL1     0.2326
     6 O         1.851909   0.027141   2.860327 O.3        1 UNL1     -0.3076
     7 O         2.552129   2.266827   2.400687 O.3        1 UNL1     -0.4605
     8 C         3.792478   2.48453   2.973109 C.ar        1 UNL1     0.1310
     9 C         4.017558   3.096421   4.210942 C.ar        1 UNL1     0.0226
     10 C         5.314147   3.256338   4.714116 C.ar        1 UNL1     0.1343
     11 C         6.416655   2.78635   4.001775 C.ar        1 UNL1     0.1007
     12 C         6.207553   2.210495   2.745809 C.ar        1 UNL1     0.1389
     13 C         4.903937   2.052197   2.238897 C.ar        1 UNL1     0.0229
     14 C         7.801157   2.853611   4.524061 C.2        1 UNL1     0.1740
     15 C         8.83129   2.104018   3.73129 C.3        1 UNL1     0.0520
     16 C         8.54132   2.307133   2.250541 C.3        1 UNL1     0.1322
     17 O         7.226973   1.811709   1.912731 O.3        1 UNL1     -0.4828
     18 C         8.831178   3.725939   1.754861 C.ar        1 UNL1     -0.0067
     19 C         7.950037   4.772409   2.096483 C.ar        1 UNL1     -0.0516
     20 C         8.15978   6.072232   1.620637 C.ar        1 UNL1     -0.0198
     21 C         9.240423   6.336358   0.798277 C.ar        1 UNL1     0.1169
     22 C         10.14436   5.333866   0.471556 C.ar        1 UNL1     -0.0198
     23 C         9.945148   4.037897   0.962304 C.ar        1 UNL1     -0.0516
     24 O         9.391237   7.60604   0.323344 O.3        1 UNL1     -0.5068
     25 O         8.100283   3.410896   5.576888 O.2        1 UNL1     -0.2917
     26 O         5.46551   3.862375   5.927125 O.3        1 UNL1     -0.5058
     27 O         2.475307   -0.22531   0.609939 O.3        1 UNL1     -0.3648
     28 O         -0.931812   -0.879273   1.602945 O.3        1 UNL1     -0.3841
     29 O         0.005908   2.428855   0.58913 O.3        1 UNL1     -0.3863
     30 O         -0.601872   1.060432   3.944444 O.3        1 UNL1     -0.3829
     31 H         1.399853   -1.511987   1.689685 H        1 UNL1     0.0937
     32 H         0.0   0.0   0.0 H        1 UNL1     0.0671
     33 H         -1.449022   1.479094   1.621057 H        1 UNL1     0.0649
     34 H         0.039634   2.848347   3.167422 H        1 UNL1     0.0683
     35 H         1.840708   1.55131   4.21053 H        1 UNL1     0.1085
     36 H         3.199123   3.432637   4.838033 H        1 UNL1     0.0691
     37 H         4.768051   1.601751   1.258017 H        1 UNL1     0.0691
     38 H         8.756495   1.0467   4.006991 H        1 UNL1     0.0385
     39 H         9.828579   2.460618   4.010627 H        1 UNL1     0.0385
     40 H         9.230798   1.658246   1.693689 H        1 UNL1     0.0789
     41 H         7.089338   4.58894   2.733026 H        1 UNL1     0.0623
     42 H         7.466561   6.868123   1.881437 H        1 UNL1     0.0654
     43 H         11.00233   5.532992   -0.159432 H        1 UNL1     0.0654
     44 H         10.677025   3.28154   0.695608 H        1 UNL1     0.0623
     45 H         9.184293   7.605247   -0.625282 H        1 UNL1     0.2921
     46 H         6.104964   3.364038   6.460202 H        1 UNL1     0.2922
     47 H         2.238327   -0.656978   -0.222746 H        1 UNL1     0.2126
     48 H         -1.156428   -0.578983   2.504669 H        1 UNL1     0.2101
     49 H         0.84539   2.848417   0.836175 H        1 UNL1     0.2100
     50 H         -1.505325   1.439156   3.951693 H        1 UNL1     0.2102
@<TRIPOS>BOND
     1     1     2    1
     2     1     6    1
     3     2     3    1
     4     3     4    1
     5     3    29    1
     6     3    33    1
     7     4     5    1
     8     5     6    1
     9     5     7    1
    10     5    35    1
    11     7     8    1
    12     8     9   ar
    13     8    13   ar
    14     9    10   ar
    15     9    36    1
    16    10    11   ar
    17    10    26    1
    18    11    12   ar
    19    11    14    1
    20    12    13   ar
    21    12    17    1
    22    13    37    1
    23    14    15    1
    24    14    25    2
    25    15    16    1
    26    15    38    1
    27    15    39    1
    28    16    17    1
    29    16    18    1
    30    16    40    1
    31    18    19   ar
    32    18    23   ar
    33    19    20   ar
    34    19    41    1
    35    20    21   ar
    36    20    42    1
    37    21    22   ar
    38    21    24    1
    39    22    23   ar
    40    22    43    1
    41    23    44    1
    42    24    45    1
    43    26    46    1
    44    27    47    1
    45    28    48    1
    46    29    49    1
    47    30    50    1
    48     1    31    1
    49     1    27    1
    50     2    32    1
    51     2    28    1
    52     4    34    1
    53     4    30    1
