@<TRIPOS>MOLECULE
*****
 50 53 0 0 0
SMALL
GASTEIGER

@<TRIPOS>ATOM
     1 C         -1.093477   0.146101   1.885144 C.3        1 UNL1     0.1889
     2 C         0.22472   0.135045   1.065282 C.3        1 UNL1     0.1342
     3 C         1.242384   -0.930029   1.50168 C.3        1 UNL1     0.1174
     4 C         1.229649   -1.179543   3.011878 C.3        1 UNL1     0.1456
     5 C         -0.195617   -1.339699   3.571639 C.3        1 UNL1     0.2326
     6 O         -0.972541   -0.18535   3.260611 O.3        1 UNL1     -0.3076
     7 O         -0.830023   -2.570946   3.18064 O.3        1 UNL1     -0.4605
     8 C         -1.013667   -3.50396   4.185273 C.ar        1 UNL1     0.1310
     9 C         -1.597319   -3.249197   5.430964 C.ar        1 UNL1     0.0226
     10 C         -1.754912   -4.26785   6.378283 C.ar        1 UNL1     0.1343
     11 C         -1.35392   -5.57243   6.093469 C.ar        1 UNL1     0.1007
     12 C         -0.73244   -5.830567   4.86876 C.ar        1 UNL1     0.1389
     13 C         -0.571695   -4.805591   3.917436 C.ar        1 UNL1     0.0229
     14 C         -1.572786   -6.703589   7.024452 C.2        1 UNL1     0.1740
     15 C         -1.28495   -8.067206   6.46835 C.3        1 UNL1     0.0520
     16 C         -0.024935   -7.98452   5.617773 C.3        1 UNL1     0.1322
     17 O         -0.202319   -7.053229   4.52768 O.3        1 UNL1     -0.4828
     18 C         1.254549   -7.773218   6.43079 C.ar        1 UNL1     -0.0067
     19 C         2.407265   -8.52134   6.114923 C.ar        1 UNL1     -0.0516
     20 C         3.579557   -8.387027   6.868352 C.ar        1 UNL1     -0.0198
     21 C         3.609548   -7.515354   7.942183 C.ar        1 UNL1     0.1169
     22 C         2.501008   -6.740329   8.257325 C.ar        1 UNL1     -0.0198
     23 C         1.334447   -6.860875   7.492695 C.ar        1 UNL1     -0.0516
     24 O         4.756754   -7.439078   8.676009 O.3        1 UNL1     -0.5068
     25 O         -2.035071   -6.569524   8.15441 O.2        1 UNL1     -0.2917
     26 O         -2.330639   -3.953234   7.574585 O.3        1 UNL1     -0.5058
     27 O         -2.15082   -0.56841   1.265234 O.3        1 UNL1     -0.3648
     28 O         0.860785   1.418806   1.207006 O.3        1 UNL1     -0.3841
     29 O         1.07924   -2.128899   0.741266 O.3        1 UNL1     -0.3863
     30 O         1.869017   -0.070652   3.680651 O.3        1 UNL1     -0.3829
     31 H         -1.442888   1.184232   1.901682 H        1 UNL1     0.0937
     32 H         0.0   0.0   0.0 H        1 UNL1     0.0671
     33 H         2.24547   -0.558713   1.249365 H        1 UNL1     0.0649
     34 H         1.81369   -2.076014   3.247755 H        1 UNL1     0.0683
     35 H         -0.05349   -1.344855   4.659596 H        1 UNL1     0.1085
     36 H         -1.980271   -2.268561   5.691389 H        1 UNL1     0.0691
     37 H         -0.083735   -5.032209   2.971903 H        1 UNL1     0.0691
     38 H         -2.148833   -8.368455   5.866285 H        1 UNL1     0.0385
     39 H         -1.180188   -8.777434   7.295622 H        1 UNL1     0.0385
     40 H         0.099655   -8.959832   5.128116 H        1 UNL1     0.0789
     41 H         2.406386   -9.219008   5.282511 H        1 UNL1     0.0623
     42 H         4.458116   -8.978235   6.622143 H        1 UNL1     0.0654
     43 H         2.518452   -6.043579   9.08687 H        1 UNL1     0.0654
     44 H         0.490753   -6.232213   7.760669 H        1 UNL1     0.0623
     45 H         5.510448   -7.408911   8.064656 H        1 UNL1     0.2921
     46 H         -1.88778   -4.44302   8.285498 H        1 UNL1     0.2922
     47 H         -2.652721   -1.064552   1.926897 H        1 UNL1     0.2126
     48 H         1.082361   1.518257   2.152916 H        1 UNL1     0.2101
     49 H         0.212228   -2.522808   0.928132 H        1 UNL1     0.2100
     50 H         2.819555   -0.083283   3.443943 H        1 UNL1     0.2102
@<TRIPOS>BOND
     1     1     2    1
     2     1     6    1
     3     2     3    1
     4     3     4    1
     5     3    29    1
     6     3    33    1
     7     4     5    1
     8     5     6    1
     9     5     7    1
    10     5    35    1
    11     7     8    1
    12     8     9   ar
    13     8    13   ar
    14     9    10   ar
    15     9    36    1
    16    10    11   ar
    17    10    26    1
    18    11    12   ar
    19    11    14    1
    20    12    13   ar
    21    12    17    1
    22    13    37    1
    23    14    15    1
    24    14    25    2
    25    15    16    1
    26    15    38    1
    27    15    39    1
    28    16    17    1
    29    16    18    1
    30    16    40    1
    31    18    19   ar
    32    18    23   ar
    33    19    20   ar
    34    19    41    1
    35    20    21   ar
    36    20    42    1
    37    21    22   ar
    38    21    24    1
    39    22    23   ar
    40    22    43    1
    41    23    44    1
    42    24    45    1
    43    26    46    1
    44    27    47    1
    45    28    48    1
    46    29    49    1
    47    30    50    1
    48     1    31    1
    49     1    27    1
    50     2    32    1
    51     2    28    1
    52     4    34    1
    53     4    30    1
