@<TRIPOS>MOLECULE
*****
 50 53 0 0 0
SMALL
GASTEIGER

@<TRIPOS>ATOM
     1 C         -0.368928   -1.397218   1.637828 C.3        1 UNL1     0.1889
     2 C         -0.486914   -0.971651   0.149569 C.3        1 UNL1     0.1342
     3 C         -1.925678   -0.898631   -0.384371 C.3        1 UNL1     0.1174
     4 C         -2.839527   -1.965056   0.224507 C.3        1 UNL1     0.1456
     5 C         -2.692366   -2.065206   1.753781 C.3        1 UNL1     0.2326
     6 O         -1.334147   -2.333084   2.094885 O.3        1 UNL1     -0.3076
     7 O         -3.24036   -0.935734   2.457567 O.3        1 UNL1     -0.4605
     8 C         -3.768844   -1.19916   3.708503 C.ar        1 UNL1     0.1310
     9 C         -3.54546   -0.436104   4.859652 C.ar        1 UNL1     0.0226
     10 C         -4.141358   -0.775825   6.080061 C.ar        1 UNL1     0.1343
     11 C         -4.994942   -1.87423   6.173562 C.ar        1 UNL1     0.1007
     12 C         -5.193164   -2.667681   5.040457 C.ar        1 UNL1     0.1389
     13 C         -4.591778   -2.327412   3.814087 C.ar        1 UNL1     0.0229
     14 C         -5.716924   -2.229482   7.417222 C.2        1 UNL1     0.1740
     15 C         -6.759398   -3.299928   7.279583 C.3        1 UNL1     0.0520
     16 C         -6.222073   -4.378991   6.349603 C.3        1 UNL1     0.1322
     17 O         -5.926385   -3.831565   5.045777 O.3        1 UNL1     -0.4828
     18 C         -5.091418   -5.211034   6.95956 C.ar        1 UNL1     -0.0067
     19 C         -4.308261   -6.03346   6.123801 C.ar        1 UNL1     -0.0516
     20 C         -3.297477   -6.843004   6.655699 C.ar        1 UNL1     -0.0198
     21 C         -3.065407   -6.844624   8.019505 C.ar        1 UNL1     0.1169
     22 C         -3.797641   -6.020508   8.864198 C.ar        1 UNL1     -0.0198
     23 C         -4.796137   -5.197073   8.33033 C.ar        1 UNL1     -0.0516
     24 O         -2.098081   -7.674265   8.505694 O.3        1 UNL1     -0.5068
     25 O         -5.550263   -1.647059   8.485629 O.2        1 UNL1     -0.2917
     26 O         -3.881901   0.008999   7.165564 O.3        1 UNL1     -0.5058
     27 O         -0.237568   -0.30218   2.530253 O.3        1 UNL1     -0.3648
     28 O         0.221065   -1.931472   -0.65679 O.3        1 UNL1     -0.3841
     29 O         -2.450634   0.423473   -0.248005 O.3        1 UNL1     -0.3863
     30 O         -2.522981   -3.248441   -0.357224 O.3        1 UNL1     -0.3829
     31 H         0.578458   -1.938747   1.734177 H        1 UNL1     0.0937
     32 H         0.0   0.0   0.0 H        1 UNL1     0.0671
     33 H         -1.891961   -1.089025   -1.466191 H        1 UNL1     0.0649
     34 H         -3.884281   -1.748987   -0.024904 H        1 UNL1     0.0683
     35 H         -3.269829   -2.960254   2.017039 H        1 UNL1     0.1085
     36 H         -2.937028   0.46141   4.839656 H        1 UNL1     0.0691
     37 H         -4.761101   -2.962113   2.946921 H        1 UNL1     0.0691
     38 H         -7.659833   -2.833989   6.865283 H        1 UNL1     0.0385
     39 H         -7.003543   -3.692961   8.272405 H        1 UNL1     0.0385
     40 H         -7.040929   -5.088761   6.170098 H        1 UNL1     0.0789
     41 H         -4.476813   -6.056976   5.051099 H        1 UNL1     0.0623
     42 H         -2.708329   -7.481723   6.002281 H        1 UNL1     0.0654
     43 H         -3.614088   -6.00274   9.93186 H        1 UNL1     0.0654
     44 H         -5.341603   -4.558164   9.018158 H        1 UNL1     0.0623
     45 H         -2.375595   -8.591959   8.352268 H        1 UNL1     0.2921
     46 H         -4.718021   0.319316   7.54769 H        1 UNL1     0.2922
     47 H         0.506994   0.256656   2.267214 H        1 UNL1     0.2126
     48 H         1.166263   -1.84782   -0.425846 H        1 UNL1     0.2101
     49 H         -2.002046   1.022063   -0.866271 H        1 UNL1     0.2100
     50 H         -2.780415   -3.22293   -1.3021 H        1 UNL1     0.2102
@<TRIPOS>BOND
     1     1     2    1
     2     1     6    1
     3     2     3    1
     4     3     4    1
     5     3    29    1
     6     3    33    1
     7     4     5    1
     8     5     6    1
     9     5     7    1
    10     5    35    1
    11     7     8    1
    12     8     9   ar
    13     8    13   ar
    14     9    10   ar
    15     9    36    1
    16    10    11   ar
    17    10    26    1
    18    11    12   ar
    19    11    14    1
    20    12    13   ar
    21    12    17    1
    22    13    37    1
    23    14    15    1
    24    14    25    2
    25    15    16    1
    26    15    38    1
    27    15    39    1
    28    16    17    1
    29    16    18    1
    30    16    40    1
    31    18    19   ar
    32    18    23   ar
    33    19    20   ar
    34    19    41    1
    35    20    21   ar
    36    20    42    1
    37    21    22   ar
    38    21    24    1
    39    22    23   ar
    40    22    43    1
    41    23    44    1
    42    24    45    1
    43    26    46    1
    44    27    47    1
    45    28    48    1
    46    29    49    1
    47    30    50    1
    48     1    31    1
    49     1    27    1
    50     2    32    1
    51     2    28    1
    52     4    34    1
    53     4    30    1
