@<TRIPOS>MOLECULE
*****
 50 53 0 0 0
SMALL
GASTEIGER

@<TRIPOS>ATOM
     1 C         -0.347952   -1.337404   1.691474 C.3        1 UNL1     0.1889
     2 C         -0.470339   -0.973262   0.187359 C.3        1 UNL1     0.1342
     3 C         -1.909093   -0.946435   -0.350908 C.3        1 UNL1     0.1174
     4 C         -2.805572   -2.003588   0.298608 C.3        1 UNL1     0.1456
     5 C         -2.659719   -2.040487   1.830838 C.3        1 UNL1     0.2326
     6 O         -1.297748   -2.271029   2.184044 O.3        1 UNL1     -0.3076
     7 O         -3.228543   -0.893689   2.488573 O.3        1 UNL1     -0.4605
     8 C         -3.754862   -1.116464   3.74829 C.ar        1 UNL1     0.1310
     9 C         -4.587697   -2.183693   4.101434 C.ar        1 UNL1     0.0226
     10 C         -5.056953   -2.332591   5.41198 C.ar        1 UNL1     0.1343
     11 C         -4.685049   -1.430209   6.407589 C.ar        1 UNL1     0.1007
     12 C         -3.887155   -0.337513   6.058069 C.ar        1 UNL1     0.1389
     13 C         -3.417607   -0.186552   4.739674 C.ar        1 UNL1     0.0229
     14 C         -5.083269   -1.586521   7.825736 C.2        1 UNL1     0.1740
     15 C         -4.414082   -0.656198   8.794361 C.3        1 UNL1     0.0520
     16 C         -4.321591   0.721692   8.153409 C.3        1 UNL1     0.1322
     17 O         -3.550039   0.668878   6.933167 O.3        1 UNL1     -0.4828
     18 C         -5.671253   1.431221   8.020346 C.ar        1 UNL1     -0.0067
     19 C         -6.0224   2.026748   6.79142 C.ar        1 UNL1     -0.0516
     20 C         -7.22803   2.724118   6.649672 C.ar        1 UNL1     -0.0198
     21 C         -8.085755   2.839095   7.728984 C.ar        1 UNL1     0.1169
     22 C         -7.783221   2.235038   8.94242 C.ar        1 UNL1     -0.0198
     23 C         -6.586213   1.521918   9.079126 C.ar        1 UNL1     -0.0516
     24 O         -9.233167   3.557897   7.564146 O.3        1 UNL1     -0.5068
     25 O         -5.846771   -2.46369   8.220862 O.2        1 UNL1     -0.2917
     26 O         -5.866858   -3.394629   5.690748 O.3        1 UNL1     -0.5058
     27 O         -0.237302   -0.205746   2.539939 O.3        1 UNL1     -0.3648
     28 O         0.255716   -1.951856   -0.57939 O.3        1 UNL1     -0.3841
     29 O         -2.457095   0.370726   -0.267757 O.3        1 UNL1     -0.3863
     30 O         -2.46574   -3.303333   -0.231362 O.3        1 UNL1     -0.3829
     31 H         0.608463   -1.85817   1.810443 H        1 UNL1     0.0937
     32 H         0.0   0.0   0.0 H        1 UNL1     0.0671
     33 H         -1.869956   -1.178938   -1.424281 H        1 UNL1     0.0649
     34 H         -3.85341   -1.815734   0.03948 H        1 UNL1     0.0683
     35 H         -3.222142   -2.934283   2.128642 H        1 UNL1     0.1085
     36 H         -4.867236   -2.949651   3.386391 H        1 UNL1     0.0691
     37 H         -2.798709   0.673449   4.492981 H        1 UNL1     0.0691
     38 H         -3.418685   -1.060169   9.007714 H        1 UNL1     0.0385
     39 H         -4.984459   -0.640481   9.729349 H        1 UNL1     0.0385
     40 H         -3.726652   1.352905   8.827307 H        1 UNL1     0.0789
     41 H         -5.362036   1.958502   5.93182 H        1 UNL1     0.0623
     42 H         -7.481999   3.189085   5.700295 H        1 UNL1     0.0654
     43 H         -8.454743   2.306065   9.789724 H        1 UNL1     0.0654
     44 H         -6.386894   1.053796   10.038282 H        1 UNL1     0.0623
     45 H         -8.993091   4.476069   7.359108 H        1 UNL1     0.2921
     46 H         -5.477676   -3.918597   6.408667 H        1 UNL1     0.2922
     47 H         0.498006   0.355062   2.255902 H        1 UNL1     0.2126
     48 H         1.194745   -1.865665   -0.325365 H        1 UNL1     0.2101
     49 H         -2.017462   0.952122   -0.908456 H        1 UNL1     0.2100
     50 H         -2.700879   -3.31207   -1.182333 H        1 UNL1     0.2102
@<TRIPOS>BOND
     1     1     2    1
     2     1     6    1
     3     2     3    1
     4     3     4    1
     5     3    29    1
     6     3    33    1
     7     4     5    1
     8     5     6    1
     9     5     7    1
    10     5    35    1
    11     7     8    1
    12     8     9   ar
    13     8    13   ar
    14     9    10   ar
    15     9    36    1
    16    10    11   ar
    17    10    26    1
    18    11    12   ar
    19    11    14    1
    20    12    13   ar
    21    12    17    1
    22    13    37    1
    23    14    15    1
    24    14    25    2
    25    15    16    1
    26    15    38    1
    27    15    39    1
    28    16    17    1
    29    16    18    1
    30    16    40    1
    31    18    19   ar
    32    18    23   ar
    33    19    20   ar
    34    19    41    1
    35    20    21   ar
    36    20    42    1
    37    21    22   ar
    38    21    24    1
    39    22    23   ar
    40    22    43    1
    41    23    44    1
    42    24    45    1
    43    26    46    1
    44    27    47    1
    45    28    48    1
    46    29    49    1
    47    30    50    1
    48     1    31    1
    49     1    27    1
    50     2    32    1
    51     2    28    1
    52     4    34    1
    53     4    30    1
