@<TRIPOS>MOLECULE
*****
 50 53 0 0 0
SMALL
GASTEIGER

@<TRIPOS>ATOM
     1 C         -0.322421   -1.32432   1.706758 C.3        1 UNL1     0.1889
     2 C         -0.457198   -0.97706   0.199713 C.3        1 UNL1     0.1342
     3 C         -1.898971   -0.973553   -0.331083 C.3        1 UNL1     0.1174
     4 C         -2.778808   -2.03507   0.333888 C.3        1 UNL1     0.1456
     5 C         -2.624495   -2.054552   1.86561 C.3        1 UNL1     0.2326
     6 O         -1.257931   -2.264584   2.21383 O.3        1 UNL1     -0.3076
     7 O         -3.204106   -0.908256   2.514746 O.3        1 UNL1     -0.4605
     8 C         -3.710833   -1.122127   3.784003 C.ar        1 UNL1     0.1310
     9 C         -4.521259   -2.197942   4.162334 C.ar        1 UNL1     0.0226
     10 C         -4.971533   -2.336303   5.480671 C.ar        1 UNL1     0.1343
     11 C         -4.602314   -1.414125   6.458989 C.ar        1 UNL1     0.1007
     12 C         -3.827202   -0.313375   6.084377 C.ar        1 UNL1     0.1389
     13 C         -3.376768   -0.173056   4.758161 C.ar        1 UNL1     0.0229
     14 C         -4.980099   -1.557227   7.884105 C.2        1 UNL1     0.1740
     15 C         -4.314465   -0.60258   8.831275 C.3        1 UNL1     0.0520
     16 C         -4.253007   0.76759   8.170355 C.3        1 UNL1     0.1322
     17 O         -3.496007   0.710535   6.941223 O.3        1 UNL1     -0.4828
     18 C         -5.615882   1.452811   8.044777 C.ar        1 UNL1     -0.0067
     19 C         -5.998476   2.012179   6.808273 C.ar        1 UNL1     -0.0516
     20 C         -7.217324   2.687241   6.671661 C.ar        1 UNL1     -0.0198
     21 C         -8.057168   2.815818   7.763429 C.ar        1 UNL1     0.1169
     22 C         -7.723316   2.246793   8.985555 C.ar        1 UNL1     -0.0198
     23 C         -6.51293   1.555731   9.117673 C.ar        1 UNL1     -0.0516
     24 O         -9.218568   3.512622   7.60214 O.3        1 UNL1     -0.5068
     25 O         -5.723853   -2.441296   8.30092 O.2        1 UNL1     -0.2917
     26 O         -5.760051   -3.407586   5.784275 O.3        1 UNL1     -0.5058
     27 O         -0.221433   -0.182796   2.543125 O.3        1 UNL1     -0.3648
     28 O         0.276964   -1.954335   -0.560974 O.3        1 UNL1     -0.3841
     29 O         -2.462887   0.337491   -0.258329 O.3        1 UNL1     -0.3863
     30 O         -2.425596   -3.335831   -0.184716 O.3        1 UNL1     -0.3829
     31 H         0.641012   -1.831951   1.825865 H        1 UNL1     0.0937
     32 H         0.0   0.0   0.0 H        1 UNL1     0.0671
     33 H         -1.862556   -1.216472   -1.402243 H        1 UNL1     0.0649
     34 H         -3.830245   -1.862868   0.07849 H        1 UNL1     0.0683
     35 H         -3.174181   -2.952173   2.175451 H        1 UNL1     0.1085
     36 H         -4.796899   -2.978296   3.461484 H        1 UNL1     0.0691
     37 H         -2.775443   0.69353   4.49183 H        1 UNL1     0.0691
     38 H         -3.309874   -0.987048   9.03745 H        1 UNL1     0.0385
     39 H         -4.873284   -0.583265   9.773149 H        1 UNL1     0.0385
     40 H         -3.660301   1.417865   8.827898 H        1 UNL1     0.0789
     41 H         -5.352716   1.932744   5.938598 H        1 UNL1     0.0623
     42 H         -7.49567   3.124538   5.71599 H        1 UNL1     0.0654
     43 H         -8.380497   2.328533   9.843076 H        1 UNL1     0.0654
     44 H         -6.288993   1.114686   10.084201 H        1 UNL1     0.0623
     45 H         -8.997215   4.422528   7.345643 H        1 UNL1     0.2921
     46 H         -5.352536   -3.915783   6.503357 H        1 UNL1     0.2922
     47 H         0.516575   0.375144   2.260447 H        1 UNL1     0.2126
     48 H         1.21093   -1.878988   -0.28572 H        1 UNL1     0.2101
     49 H         -2.028157   0.919882   -0.901466 H        1 UNL1     0.2100
     50 H         -2.660373   -3.355217   -1.13562 H        1 UNL1     0.2102
@<TRIPOS>BOND
     1     1     2    1
     2     1     6    1
     3     2     3    1
     4     3     4    1
     5     3    29    1
     6     3    33    1
     7     4     5    1
     8     5     6    1
     9     5     7    1
    10     5    35    1
    11     7     8    1
    12     8     9   ar
    13     8    13   ar
    14     9    10   ar
    15     9    36    1
    16    10    11   ar
    17    10    26    1
    18    11    12   ar
    19    11    14    1
    20    12    13   ar
    21    12    17    1
    22    13    37    1
    23    14    15    1
    24    14    25    2
    25    15    16    1
    26    15    38    1
    27    15    39    1
    28    16    17    1
    29    16    18    1
    30    16    40    1
    31    18    19   ar
    32    18    23   ar
    33    19    20   ar
    34    19    41    1
    35    20    21   ar
    36    20    42    1
    37    21    22   ar
    38    21    24    1
    39    22    23   ar
    40    22    43    1
    41    23    44    1
    42    24    45    1
    43    26    46    1
    44    27    47    1
    45    28    48    1
    46    29    49    1
    47    30    50    1
    48     1    31    1
    49     1    27    1
    50     2    32    1
    51     2    28    1
    52     4    34    1
    53     4    30    1
