@<TRIPOS>MOLECULE
*****
 50 53 0 0 0
SMALL
GASTEIGER

@<TRIPOS>ATOM
     1 C         -0.321702   -1.36455   1.674907 C.3        1 UNL1     0.1889
     2 C         -0.459642   -0.980257   0.177165 C.3        1 UNL1     0.1342
     3 C         -1.902883   -0.959474   -0.349228 C.3        1 UNL1     0.1174
     4 C         -2.784113   -2.03423   0.292216 C.3        1 UNL1     0.1456
     5 C         -2.625558   -2.091504   1.822557 C.3        1 UNL1     0.2326
     6 O         -1.258674   -2.314073   2.161615 O.3        1 UNL1     -0.3076
     7 O         -3.19981   -0.959631   2.501099 O.3        1 UNL1     -0.4605
     8 C         -3.713827   -1.205278   3.761643 C.ar        1 UNL1     0.1310
     9 C         -4.533716   -2.285291   4.106106 C.ar        1 UNL1     0.0226
     10 C         -4.990959   -2.457251   5.418075 C.ar        1 UNL1     0.1343
     11 C         -4.61953   -1.565608   6.423487 C.ar        1 UNL1     0.1007
     12 C         -3.83479   -0.460514   6.083289 C.ar        1 UNL1     0.1389
     13 C         -3.377337   -0.286377   4.763499 C.ar        1 UNL1     0.0229
     14 C         -5.004805   -1.745834   7.842373 C.2        1 UNL1     0.1740
     15 C         -4.336596   -0.823041   8.818846 C.3        1 UNL1     0.0520
     16 C         -4.262237   0.564634   8.196925 C.3        1 UNL1     0.1322
     17 O         -3.500097   0.536504   6.969969 O.3        1 UNL1     -0.4828
     18 C         -5.619539   1.263108   8.084725 C.ar        1 UNL1     -0.0067
     19 C         -5.744054   2.408057   7.271212 C.ar        1 UNL1     -0.0516
     20 C         -6.95889   3.098317   7.183597 C.ar        1 UNL1     -0.0198
     21 C         -8.052099   2.658985   7.908653 C.ar        1 UNL1     0.1169
     22 C         -7.969839   1.515358   8.692355 C.ar        1 UNL1     -0.0198
     23 C         -6.760234   0.814266   8.765718 C.ar        1 UNL1     -0.0516
     24 O         -9.207983   3.378573   7.82785 O.3        1 UNL1     -0.5068
     25 O         -5.756814   -2.635751   8.230977 O.2        1 UNL1     -0.2917
     26 O         -5.788569   -3.5308   5.688063 O.3        1 UNL1     -0.5058
     27 O         -0.21485   -0.244059   2.538544 O.3        1 UNL1     -0.3648
     28 O         0.269368   -1.940906   -0.609221 O.3        1 UNL1     -0.3841
     29 O         -2.462552   0.3511   -0.242926 O.3        1 UNL1     -0.3863
     30 O         -2.436367   -3.323022   -0.258944 O.3        1 UNL1     -0.3829
     31 H         0.640495   -1.877831   1.778832 H        1 UNL1     0.0937
     32 H         0.0   0.0   0.0 H        1 UNL1     0.0671
     33 H         -1.870226   -1.176321   -1.42609 H        1 UNL1     0.0649
     34 H         -3.835727   -1.85269   0.044122 H        1 UNL1     0.0683
     35 H         -3.177132   -2.994752   2.112019 H        1 UNL1     0.1085
     36 H         -4.811804   -3.043638   3.382437 H        1 UNL1     0.0691
     37 H         -2.768562   0.582891   4.524211 H        1 UNL1     0.0691
     38 H         -3.335756   -1.220514   9.018501 H        1 UNL1     0.0385
     39 H         -4.899531   -0.826037   9.75846 H        1 UNL1     0.0385
     40 H         -3.667838   1.19184   8.875027 H        1 UNL1     0.0789
     41 H         -4.898174   2.778354   6.699357 H        1 UNL1     0.0623
     42 H         -7.038984   3.986774   6.562113 H        1 UNL1     0.0654
     43 H         -8.823954   1.153903   9.252487 H        1 UNL1     0.0654
     44 H         -6.734764   -0.081062   9.379383 H        1 UNL1     0.0623
     45 H         -9.04003   4.268884   8.176925 H        1 UNL1     0.2921
     46 H         -5.399955   -4.049017   6.41045 H        1 UNL1     0.2922
     47 H         0.512838   0.327697   2.25672 H        1 UNL1     0.2126
     48 H         1.214262   -1.818384   -0.394988 H        1 UNL1     0.2101
     49 H         -2.03383   0.945612   -0.878965 H        1 UNL1     0.2100
     50 H         -2.699795   -3.328447   -1.202495 H        1 UNL1     0.2102
@<TRIPOS>BOND
     1     1     2    1
     2     1     6    1
     3     2     3    1
     4     3     4    1
     5     3    29    1
     6     3    33    1
     7     4     5    1
     8     5     6    1
     9     5     7    1
    10     5    35    1
    11     7     8    1
    12     8     9   ar
    13     8    13   ar
    14     9    10   ar
    15     9    36    1
    16    10    11   ar
    17    10    26    1
    18    11    12   ar
    19    11    14    1
    20    12    13   ar
    21    12    17    1
    22    13    37    1
    23    14    15    1
    24    14    25    2
    25    15    16    1
    26    15    38    1
    27    15    39    1
    28    16    17    1
    29    16    18    1
    30    16    40    1
    31    18    19   ar
    32    18    23   ar
    33    19    20   ar
    34    19    41    1
    35    20    21   ar
    36    20    42    1
    37    21    22   ar
    38    21    24    1
    39    22    23   ar
    40    22    43    1
    41    23    44    1
    42    24    45    1
    43    26    46    1
    44    27    47    1
    45    28    48    1
    46    29    49    1
    47    30    50    1
    48     1    31    1
    49     1    27    1
    50     2    32    1
    51     2    28    1
    52     4    34    1
    53     4    30    1
