@<TRIPOS>MOLECULE
*****
 50 53 0 0 0
SMALL
GASTEIGER

@<TRIPOS>ATOM
     1 C         0.326745   -0.617041   2.069614 C.3        1 UNL1     0.1889
     2 C         0.02224   -0.930899   0.580081 C.3        1 UNL1     0.1342
     3 C         -1.285371   -1.701398   0.341436 C.3        1 UNL1     0.1174
     4 C         -1.596143   -2.702834   1.456633 C.3        1 UNL1     0.1456
     5 C         -1.417442   -2.096928   2.860666 C.3        1 UNL1     0.2326
     6 O         -0.090506   -1.596808   3.008951 O.3        1 UNL1     -0.3076
     7 O         -2.427853   -1.13005   3.200576 O.3        1 UNL1     -0.4605
     8 C         -2.762714   -1.048608   4.540264 C.ar        1 UNL1     0.1310
     9 C         -3.010443   -2.138799   5.381343 C.ar        1 UNL1     0.0226
     10 C         -3.326729   -1.953326   6.73244 C.ar        1 UNL1     0.1343
     11 C         -3.379638   -0.672817   7.281383 C.ar        1 UNL1     0.1007
     12 C         -3.174499   0.425476   6.442066 C.ar        1 UNL1     0.1389
     13 C         -2.859093   0.238827   5.082981 C.ar        1 UNL1     0.0229
     14 C         -3.626511   -0.423111   8.72043 C.2        1 UNL1     0.1740
     15 C         -3.428079   0.992357   9.177181 C.3        1 UNL1     0.0520
     16 C         -3.988201   1.925237   8.112307 C.3        1 UNL1     0.1322
     17 O         -3.308754   1.731637   6.852172 O.3        1 UNL1     -0.4828
     18 C         -5.515822   1.906798   8.018723 C.ar        1 UNL1     -0.0067
     19 C         -6.130762   1.767069   6.757558 C.ar        1 UNL1     -0.0516
     20 C         -7.524777   1.793839   6.6312 C.ar        1 UNL1     -0.0198
     21 C         -8.312901   1.966711   7.754945 C.ar        1 UNL1     0.1169
     22 C         -7.737806   2.073488   9.014589 C.ar        1 UNL1     -0.0198
     23 C         -6.344463   2.028248   9.143445 C.ar        1 UNL1     -0.0516
     24 O         -9.665369   2.025681   7.588352 O.3        1 UNL1     -0.5068
     25 O         -3.897742   -1.311479   9.523998 O.2        1 UNL1     -0.2917
     26 O         -3.558324   -3.058263   7.498641 O.3        1 UNL1     -0.5058
     27 O         -0.066336   0.687774   2.464244 O.3        1 UNL1     -0.3648
     28 O         1.095005   -1.734587   0.054755 O.3        1 UNL1     -0.3841
     29 O         -2.365855   -0.80073   0.089477 O.3        1 UNL1     -0.3863
     30 O         -0.718625   -3.842608   1.327912 O.3        1 UNL1     -0.3829
     31 H         1.417448   -0.612536   2.17172 H        1 UNL1     0.0937
     32 H         -0.0   0.0   0.0 H        1 UNL1     0.0671
     33 H         -1.168093   -2.282499   -0.583922 H        1 UNL1     0.0649
     34 H         -2.621485   -3.074146   1.350798 H        1 UNL1     0.0683
     35 H         -1.510883   -2.958017   3.534219 H        1 UNL1     0.1085
     36 H         -2.929979   -3.161101   5.028435 H        1 UNL1     0.0691
     37 H         -2.70499   1.110368   4.450397 H        1 UNL1     0.0691
     38 H         -2.352647   1.148777   9.313215 H        1 UNL1     0.0385
     39 H         -3.918917   1.128771   10.146844 H        1 UNL1     0.0385
     40 H         -3.727658   2.949907   8.410115 H        1 UNL1     0.0789
     41 H         -5.533926   1.639317   5.859161 H        1 UNL1     0.0623
     42 H         -7.986646   1.696978   5.651758 H        1 UNL1     0.0654
     43 H         -8.346166   2.194115   9.902991 H        1 UNL1     0.0654
     44 H         -5.929597   2.104131   10.143931 H        1 UNL1     0.0623
     45 H         -10.068207   1.298811   8.090447 H        1 UNL1     0.2921
     46 H         -2.953323   -3.058557   8.257183 H        1 UNL1     0.2922
     47 H         0.348235   1.349441   1.893116 H        1 UNL1     0.2126
     48 H         1.907732   -1.197927   0.126886 H        1 UNL1     0.2101
     49 H         -2.244052   -0.372185   -0.772676 H        1 UNL1     0.2100
     50 H         -0.940591   -4.301027   0.491076 H        1 UNL1     0.2102
@<TRIPOS>BOND
     1     1     2    1
     2     1     6    1
     3     2     3    1
     4     3     4    1
     5     3    29    1
     6     3    33    1
     7     4     5    1
     8     5     6    1
     9     5     7    1
    10     5    35    1
    11     7     8    1
    12     8     9   ar
    13     8    13   ar
    14     9    10   ar
    15     9    36    1
    16    10    11   ar
    17    10    26    1
    18    11    12   ar
    19    11    14    1
    20    12    13   ar
    21    12    17    1
    22    13    37    1
    23    14    15    1
    24    14    25    2
    25    15    16    1
    26    15    38    1
    27    15    39    1
    28    16    17    1
    29    16    18    1
    30    16    40    1
    31    18    19   ar
    32    18    23   ar
    33    19    20   ar
    34    19    41    1
    35    20    21   ar
    36    20    42    1
    37    21    22   ar
    38    21    24    1
    39    22    23   ar
    40    22    43    1
    41    23    44    1
    42    24    45    1
    43    26    46    1
    44    27    47    1
    45    28    48    1
    46    29    49    1
    47    30    50    1
    48     1    31    1
    49     1    27    1
    50     2    32    1
    51     2    28    1
    52     4    34    1
    53     4    30    1
