@<TRIPOS>MOLECULE
*****
 50 53 0 0 0
SMALL
GASTEIGER

@<TRIPOS>ATOM
     1 C         -0.335804   -1.331795   1.698341 C.3        1 UNL1     0.1889
     2 C         -0.463996   -0.975224   0.192896 C.3        1 UNL1     0.1342
     3 C         -1.904172   -0.959521   -0.341996 C.3        1 UNL1     0.1174
     4 C         -2.792683   -2.019109   0.314463 C.3        1 UNL1     0.1456
     5 C         -2.642937   -2.048177   1.846486 C.3        1 UNL1     0.2326
     6 O         -1.278755   -2.268891   2.197428 O.3        1 UNL1     -0.3076
     7 O         -3.217107   -0.901862   2.500408 O.3        1 UNL1     -0.4605
     8 C         -3.728864   -1.119614   3.766984 C.ar        1 UNL1     0.1310
     9 C         -4.547225   -2.192333   4.136927 C.ar        1 UNL1     0.0226
     10 C         -5.002192   -2.335213   5.453169 C.ar        1 UNL1     0.1343
     11 C         -4.629938   -1.420922   6.43772 C.ar        1 UNL1     0.1007
     12 C         -3.846741   -0.323063   6.071535 C.ar        1 UNL1     0.1389
     13 C         -3.391579   -0.178182   4.747425 C.ar        1 UNL1     0.0229
     14 C         -5.012756   -1.569606   7.86092 C.2        1 UNL1     0.1740
     15 C         -4.343797   -0.624567   8.815354 C.3        1 UNL1     0.0520
     16 C         -4.27169   0.748871   8.162342 C.3        1 UNL1     0.1322
     17 O         -3.511509   0.693881   6.93508 O.3        1 UNL1     -0.4828
     18 C         -5.629797   1.443485   8.036726 C.ar        1 UNL1     -0.0067
     19 C         -6.005232   2.012221   6.802302 C.ar        1 UNL1     -0.0516
     20 C         -7.21935   2.695817   6.666007 C.ar        1 UNL1     -0.0198
     21 C         -8.061518   2.823627   7.756073 C.ar        1 UNL1     0.1169
     22 C         -7.734844   2.245627   8.975925 C.ar        1 UNL1     -0.0198
     23 C         -6.529277   1.54611   9.107612 C.ar        1 UNL1     -0.0516
     24 O         -9.217979   3.528735   7.595389 O.3        1 UNL1     -0.5068
     25 O         -5.763337   -2.45123   8.270618 O.2        1 UNL1     -0.2917
     26 O         -5.798401   -3.403123   5.748476 O.3        1 UNL1     -0.5058
     27 O         -0.229964   -0.195653   2.541411 O.3        1 UNL1     -0.3648
     28 O         0.266123   -1.952885   -0.571179 O.3        1 UNL1     -0.3841
     29 O         -2.459926   0.354673   -0.263472 O.3        1 UNL1     -0.3863
     30 O         -2.44627   -3.319169   -0.210448 O.3        1 UNL1     -0.3829
     31 H         0.624024   -1.846234   1.817344 H        1 UNL1     0.0937
     32 H         0.0   0.0   0.0 H        1 UNL1     0.0671
     33 H         -1.866203   -1.196649   -1.4144 H        1 UNL1     0.0649
     34 H         -3.842256   -1.838758   0.05703 H        1 UNL1     0.0683
     35 H         -3.199231   -2.943992   2.149691 H        1 UNL1     0.1085
     36 H         -4.825803   -2.966962   3.430906 H        1 UNL1     0.0691
     37 H         -2.783972   0.686024   4.487703 H        1 UNL1     0.0691
     38 H         -3.34228   -1.0166   9.022235 H        1 UNL1     0.0385
     39 H         -4.905209   -0.60697   9.755719 H        1 UNL1     0.0385
     40 H         -3.676758   1.391642   8.825232 H        1 UNL1     0.0789
     41 H         -5.357473   1.933544   5.934045 H        1 UNL1     0.0623
     42 H         -7.492131   3.140243   5.712021 H        1 UNL1     0.0654
     43 H         -8.393973   2.326749   9.832008 H        1 UNL1     0.0654
     44 H         -6.310959   1.098223   10.072277 H        1 UNL1     0.0623
     45 H         -8.99002   4.439365   7.347386 H        1 UNL1     0.2921
     46 H         -5.396911   -3.917168   6.46679 H        1 UNL1     0.2922
     47 H         0.511555   0.359844   2.263146 H        1 UNL1     0.2126
     48 H         1.201566   -1.877263   -0.301068 H        1 UNL1     0.2101
     49 H         -2.021532   0.937185   -0.904006 H        1 UNL1     0.2100
     50 H         -2.683631   -3.333637   -1.160797 H        1 UNL1     0.2102
@<TRIPOS>BOND
     1     1     2    1
     2     1     6    1
     3     2     3    1
     4     3     4    1
     5     3    29    1
     6     3    33    1
     7     4     5    1
     8     5     6    1
     9     5     7    1
    10     5    35    1
    11     7     8    1
    12     8     9   ar
    13     8    13   ar
    14     9    10   ar
    15     9    36    1
    16    10    11   ar
    17    10    26    1
    18    11    12   ar
    19    11    14    1
    20    12    13   ar
    21    12    17    1
    22    13    37    1
    23    14    15    1
    24    14    25    2
    25    15    16    1
    26    15    38    1
    27    15    39    1
    28    16    17    1
    29    16    18    1
    30    16    40    1
    31    18    19   ar
    32    18    23   ar
    33    19    20   ar
    34    19    41    1
    35    20    21   ar
    36    20    42    1
    37    21    22   ar
    38    21    24    1
    39    22    23   ar
    40    22    43    1
    41    23    44    1
    42    24    45    1
    43    26    46    1
    44    27    47    1
    45    28    48    1
    46    29    49    1
    47    30    50    1
    48     1    31    1
    49     1    27    1
    50     2    32    1
    51     2    28    1
    52     4    34    1
    53     4    30    1
