@<TRIPOS>MOLECULE
*****
 50 53 0 0 0
SMALL
GASTEIGER

@<TRIPOS>ATOM
     1 C         -2.016069   -0.78174   -0.308471 C.3        1 UNL1     0.1889
     2 C         -0.898332   -0.198828   0.597519 C.3        1 UNL1     0.1342
     3 C         -0.517929   -1.082397   1.79546 C.3        1 UNL1     0.1174
     4 C         -1.713581   -1.841186   2.376645 C.3        1 UNL1     0.1456
     5 C         -2.571474   -2.513088   1.289019 C.3        1 UNL1     0.2326
     6 O         -3.020978   -1.536664   0.352317 O.3        1 UNL1     -0.3076
     7 O         -1.928438   -3.640295   0.666742 O.3        1 UNL1     -0.4605
     8 C         -1.793478   -3.578075   -0.708555 C.ar        1 UNL1     0.1310
     9 C         -2.844924   -3.6381   -1.629511 C.ar        1 UNL1     0.0226
     10 C         -2.607111   -3.54911   -3.006256 C.ar        1 UNL1     0.1343
     11 C         -1.3131   -3.373847   -3.494785 C.ar        1 UNL1     0.1007
     12 C         -0.250773   -3.353664   -2.58713 C.ar        1 UNL1     0.1389
     13 C         -0.489894   -3.445817   -1.203021 C.ar        1 UNL1     0.0229
     14 C         -1.013597   -3.189984   -4.933759 C.2        1 UNL1     0.1740
     15 C         0.396581   -2.792585   -5.257829 C.3        1 UNL1     0.0520
     16 C         1.33802   -3.578144   -4.355306 C.3        1 UNL1     0.1322
     17 O         1.070771   -3.294099   -2.964275 O.3        1 UNL1     -0.4828
     18 C         1.416248   -5.068573   -4.694754 C.ar        1 UNL1     -0.0067
     19 C         2.383834   -5.873707   -4.05934 C.ar        1 UNL1     -0.0516
     20 C         2.513624   -7.229937   -4.381452 C.ar        1 UNL1     -0.0198
     21 C         1.688624   -7.789924   -5.340419 C.ar        1 UNL1     0.1169
     22 C         0.704019   -7.030778   -5.959362 C.ar        1 UNL1     -0.0198
     23 C         0.561763   -5.678958   -5.624098 C.ar        1 UNL1     -0.0516
     24 O         1.869488   -9.104688   -5.655195 O.3        1 UNL1     -0.5068
     25 O         -1.863076   -3.27194   -5.817022 O.2        1 UNL1     -0.2917
     26 O         -3.676102   -3.61565   -3.851487 O.3        1 UNL1     -0.5058
     27 O         -1.520809   -1.457837   -1.453198 O.3        1 UNL1     -0.3648
     28 O         -1.348803   1.063803   1.122444 O.3        1 UNL1     -0.3841
     29 O         0.575178   -1.941493   1.464999 O.3        1 UNL1     -0.3863
     30 O         -2.542862   -0.921233   3.119389 O.3        1 UNL1     -0.3829
     31 H         -2.56538   0.073482   -0.717043 H        1 UNL1     0.0937
     32 H         0.0   0.0   0.0 H        1 UNL1     0.0671
     33 H         -0.14172   -0.424519   2.591314 H        1 UNL1     0.0649
     34 H         -1.365655   -2.60197   3.084145 H        1 UNL1     0.0683
     35 H         -3.457394   -2.866228   1.831529 H        1 UNL1     0.1085
     36 H         -3.878438   -3.717312   -1.310614 H        1 UNL1     0.0691
     37 H         0.354468   -3.428669   -0.517271 H        1 UNL1     0.0691
     38 H         0.486284   -1.715581   -5.080228 H        1 UNL1     0.0385
     39 H         0.587626   -2.981214   -6.319761 H        1 UNL1     0.0385
     40 H         2.350509   -3.18779   -4.525627 H        1 UNL1     0.0789
     41 H         3.04953   -5.455734   -3.309808 H        1 UNL1     0.0623
     42 H         3.271519   -7.837475   -3.893084 H        1 UNL1     0.0654
     43 H         0.042648   -7.462886   -6.700835 H        1 UNL1     0.0654
     44 H         -0.22499   -5.118397   -6.119715 H        1 UNL1     0.0623
     45 H         2.23637   -9.157535   -6.552592 H        1 UNL1     0.2921
     46 H         -4.082238   -2.737907   -3.929162 H        1 UNL1     0.2922
     47 H         -0.749363   -1.992375   -1.218681 H        1 UNL1     0.2126
     48 H         -1.08494   1.086054   2.062451 H        1 UNL1     0.2101
     49 H         1.330573   -1.752009   2.044022 H        1 UNL1     0.2100
     50 H         -3.320385   -0.701528   2.565403 H        1 UNL1     0.2102
@<TRIPOS>BOND
     1     1     2    1
     2     1     6    1
     3     2     3    1
     4     3     4    1
     5     3    29    1
     6     3    33    1
     7     4     5    1
     8     5     6    1
     9     5     7    1
    10     5    35    1
    11     7     8    1
    12     8     9   ar
    13     8    13   ar
    14     9    10   ar
    15     9    36    1
    16    10    11   ar
    17    10    26    1
    18    11    12   ar
    19    11    14    1
    20    12    13   ar
    21    12    17    1
    22    13    37    1
    23    14    15    1
    24    14    25    2
    25    15    16    1
    26    15    38    1
    27    15    39    1
    28    16    17    1
    29    16    18    1
    30    16    40    1
    31    18    19   ar
    32    18    23   ar
    33    19    20   ar
    34    19    41    1
    35    20    21   ar
    36    20    42    1
    37    21    22   ar
    38    21    24    1
    39    22    23   ar
    40    22    43    1
    41    23    44    1
    42    24    45    1
    43    26    46    1
    44    27    47    1
    45    28    48    1
    46    29    49    1
    47    30    50    1
    48     1    31    1
    49     1    27    1
    50     2    32    1
    51     2    28    1
    52     4    34    1
    53     4    30    1
