@<TRIPOS>MOLECULE
*****
 50 53 0 0 0
SMALL
GASTEIGER

@<TRIPOS>ATOM
     1 C         -0.311754   -1.320361   1.7118 C.3        1 UNL1     0.1889
     2 C         -0.451095   -0.979049   0.203811 C.3        1 UNL1     0.1342
     3 C         -1.893748   -0.985848   -0.324555 C.3        1 UNL1     0.1174
     4 C         -2.766198   -2.050252   0.345513 C.3        1 UNL1     0.1456
     5 C         -2.609214   -2.063595   1.87703 C.3        1 UNL1     0.2326
     6 O         -1.240855   -2.264382   2.223652 O.3        1 UNL1     -0.3076
     7 O         -3.194488   -0.918523   2.523238 O.3        1 UNL1     -0.4605
     8 C         -3.707997   -1.133687   3.789548 C.ar        1 UNL1     0.1310
     9 C         -4.518658   -2.21104   4.162964 C.ar        1 UNL1     0.0226
     10 C         -4.976125   -2.350611   5.478694 C.ar        1 UNL1     0.1343
     11 C         -4.614052   -1.428101   6.459367 C.ar        1 UNL1     0.1007
     12 C         -3.838768   -0.325875   6.089479 C.ar        1 UNL1     0.1389
     13 C         -3.381101   -0.184343   4.76587 C.ar        1 UNL1     0.0229
     14 C         -4.999624   -1.57232   7.882283 C.2        1 UNL1     0.1740
     15 C         -4.341022   -0.616812   8.833492 C.3        1 UNL1     0.0520
     16 C         -4.278236   0.753675   8.173355 C.3        1 UNL1     0.1322
     17 O         -3.514211   0.698339   6.948499 O.3        1 UNL1     -0.4828
     18 C         -5.641579   1.436549   8.040296 C.ar        1 UNL1     -0.0067
     19 C         -6.012001   2.008757   6.805963 C.ar        1 UNL1     -0.0516
     20 C         -7.231175   2.68199   6.663363 C.ar        1 UNL1     -0.0198
     21 C         -8.083464   2.795977   7.747078 C.ar        1 UNL1     0.1169
     22 C         -7.761594   2.214141   8.966384 C.ar        1 UNL1     -0.0198
     23 C         -6.550786   1.524937   9.104216 C.ar        1 UNL1     -0.0516
     24 O         -9.244982   3.491384   7.58069 O.3        1 UNL1     -0.5068
     25 O         -5.744169   -2.457824   8.294619 O.2        1 UNL1     -0.2917
     26 O         -5.764465   -3.42337   5.77751 O.3        1 UNL1     -0.5058
     27 O         -0.216102   -0.175412   2.544104 O.3        1 UNL1     -0.3648
     28 O         0.287546   -1.954574   -0.554784 O.3        1 UNL1     -0.3841
     29 O         -2.465262   0.322093   -0.255311 O.3        1 UNL1     -0.3863
     30 O         -2.406189   -3.350674   -0.169256 O.3        1 UNL1     -0.3829
     31 H         0.654853   -1.821898   1.831006 H        1 UNL1     0.0937
     32 H         0.0   0.0   0.0 H        1 UNL1     0.0671
     33 H         -1.857691   -1.232204   -1.394942 H        1 UNL1     0.0649
     34 H         -3.819057   -1.885121   0.091308 H        1 UNL1     0.0683
     35 H         -3.153078   -2.963375   2.190854 H        1 UNL1     0.1085
     36 H         -4.78897   -2.991651   3.460327 H        1 UNL1     0.0691
     37 H         -2.779802   0.683379   4.503207 H        1 UNL1     0.0691
     38 H         -3.336939   -0.999586   9.045217 H        1 UNL1     0.0385
     39 H         -4.905182   -0.598777   9.772202 H        1 UNL1     0.0385
     40 H         -3.690392   1.404776   8.834434 H        1 UNL1     0.0789
     41 H         -5.356391   1.940879   5.942702 H        1 UNL1     0.0623
     42 H         -7.500129   3.129258   5.709619 H        1 UNL1     0.0654
     43 H         -8.428495   2.284429   9.817391 H        1 UNL1     0.0654
     44 H         -6.336347   1.07365   10.068167 H        1 UNL1     0.0623
     45 H         -9.02335   4.405436   7.339641 H        1 UNL1     0.2921
     46 H         -5.360825   -3.930308   6.49966 H        1 UNL1     0.2922
     47 H         0.506823   0.394812   2.247316 H        1 UNL1     0.2126
     48 H         1.226549   -1.847788   -0.308609 H        1 UNL1     0.2101
     49 H         -2.040773   0.902638   -0.906902 H        1 UNL1     0.2100
     50 H         -2.647629   -3.376664   -1.118331 H        1 UNL1     0.2102
@<TRIPOS>BOND
     1     1     2    1
     2     1     6    1
     3     2     3    1
     4     3     4    1
     5     3    29    1
     6     3    33    1
     7     4     5    1
     8     5     6    1
     9     5     7    1
    10     5    35    1
    11     7     8    1
    12     8     9   ar
    13     8    13   ar
    14     9    10   ar
    15     9    36    1
    16    10    11   ar
    17    10    26    1
    18    11    12   ar
    19    11    14    1
    20    12    13   ar
    21    12    17    1
    22    13    37    1
    23    14    15    1
    24    14    25    2
    25    15    16    1
    26    15    38    1
    27    15    39    1
    28    16    17    1
    29    16    18    1
    30    16    40    1
    31    18    19   ar
    32    18    23   ar
    33    19    20   ar
    34    19    41    1
    35    20    21   ar
    36    20    42    1
    37    21    22   ar
    38    21    24    1
    39    22    23   ar
    40    22    43    1
    41    23    44    1
    42    24    45    1
    43    26    46    1
    44    27    47    1
    45    28    48    1
    46    29    49    1
    47    30    50    1
    48     1    31    1
    49     1    27    1
    50     2    32    1
    51     2    28    1
    52     4    34    1
    53     4    30    1
