@<TRIPOS>MOLECULE
*****
 50 53 0 0 0
SMALL
GASTEIGER

@<TRIPOS>ATOM
     1 C         -0.390873   -1.380864   1.646583 C.3        1 UNL1     0.1889
     2 C         -0.492366   -0.968291   0.153458 C.3        1 UNL1     0.1342
     3 C         -1.92546   -0.894306   -0.395388 C.3        1 UNL1     0.1174
     4 C         -2.849675   -1.951497   0.213948 C.3        1 UNL1     0.1456
     5 C         -2.718075   -2.038417   1.745447 C.3        1 UNL1     0.2326
     6 O         -1.364414   -2.308669   2.102427 O.3        1 UNL1     -0.3076
     7 O         -3.268355   -0.900434   2.433565 O.3        1 UNL1     -0.4605
     8 C         -3.525148   -1.073186   3.781802 C.ar        1 UNL1     0.1310
     9 C         -4.710308   -0.715181   4.433361 C.ar        1 UNL1     0.0226
     10 C         -4.881622   -0.947269   5.803284 C.ar        1 UNL1     0.1343
     11 C         -3.88009   -1.565321   6.550804 C.ar        1 UNL1     0.1007
     12 C         -2.676231   -1.890055   5.919887 C.ar        1 UNL1     0.1389
     13 C         -2.503207   -1.654182   4.542986 C.ar        1 UNL1     0.0229
     14 C         -4.040457   -1.910366   7.982369 C.2        1 UNL1     0.1740
     15 C         -2.957713   -2.767875   8.568794 C.3        1 UNL1     0.0520
     16 C         -1.618283   -2.29361   8.022026 C.3        1 UNL1     0.1322
     17 O         -1.584726   -2.402571   6.581862 O.3        1 UNL1     -0.4828
     18 C         -1.178048   -0.932207   8.565624 C.ar        1 UNL1     -0.0067
     19 C         0.022472   -0.83453   9.298718 C.ar        1 UNL1     -0.0516
     20 C         0.430107   0.386004   9.850164 C.ar        1 UNL1     -0.0198
     21 C         -0.355879   1.511991   9.682209 C.ar        1 UNL1     0.1169
     22 C         -1.526455   1.454722   8.937018 C.ar        1 UNL1     -0.0198
     23 C         -1.924958   0.238345   8.369851 C.ar        1 UNL1     -0.0516
     24 O         0.054119   2.674665   10.265726 O.3        1 UNL1     -0.5068
     25 O         -5.024241   -1.596629   8.647367 O.2        1 UNL1     -0.2917
     26 O         -6.060946   -0.573494   6.378674 O.3        1 UNL1     -0.5058
     27 O         -0.263848   -0.278345   2.530383 O.3        1 UNL1     -0.3648
     28 O         0.219605   -1.938202   -0.63716 O.3        1 UNL1     -0.3841
     29 O         -2.446295   0.431079   -0.276144 O.3        1 UNL1     -0.3863
     30 O         -2.53267   -3.24135   -0.353041 O.3        1 UNL1     -0.3829
     31 H         0.553276   -1.925312   1.75721 H        1 UNL1     0.0937
     32 H         0.0   0.0   0.0 H        1 UNL1     0.0671
     33 H         -1.881819   -1.094602   -1.475063 H        1 UNL1     0.0649
     34 H         -3.89101   -1.733486   -0.047766 H        1 UNL1     0.0683
     35 H         -3.301795   -2.928717   2.010995 H        1 UNL1     0.1085
     36 H         -5.547607   -0.282412   3.896927 H        1 UNL1     0.0691
     37 H         -1.556061   -1.915133   4.075748 H        1 UNL1     0.0691
     38 H         -3.159847   -3.803454   8.275121 H        1 UNL1     0.0385
     39 H         -3.003867   -2.706984   9.66147 H        1 UNL1     0.0385
     40 H         -0.856774   -3.005108   8.369007 H        1 UNL1     0.0789
     41 H         0.652439   -1.705832   9.452418 H        1 UNL1     0.0623
     42 H         1.351899   0.445893   10.423509 H        1 UNL1     0.0654
     43 H         -2.141801   2.333713   8.786567 H        1 UNL1     0.0654
     44 H         -2.839636   0.232372   7.784895 H        1 UNL1     0.0623
     45 H         1.024636   2.67801   10.294032 H        1 UNL1     0.2921
     46 H         -5.922213   0.225786   6.910949 H        1 UNL1     0.2922
     47 H         -1.137493   0.029548   2.809321 H        1 UNL1     0.2126
     48 H         1.161477   -1.681193   -0.613579 H        1 UNL1     0.2101
     49 H         -3.002234   0.497114   0.516551 H        1 UNL1     0.2100
     50 H         -2.005846   -3.739162   0.306013 H        1 UNL1     0.2102
@<TRIPOS>BOND
     1     1     2    1
     2     1     6    1
     3     2     3    1
     4     3     4    1
     5     3    29    1
     6     3    33    1
     7     4     5    1
     8     5     6    1
     9     5     7    1
    10     5    35    1
    11     7     8    1
    12     8     9   ar
    13     8    13   ar
    14     9    10   ar
    15     9    36    1
    16    10    11   ar
    17    10    26    1
    18    11    12   ar
    19    11    14    1
    20    12    13   ar
    21    12    17    1
    22    13    37    1
    23    14    15    1
    24    14    25    2
    25    15    16    1
    26    15    38    1
    27    15    39    1
    28    16    17    1
    29    16    18    1
    30    16    40    1
    31    18    19   ar
    32    18    23   ar
    33    19    20   ar
    34    19    41    1
    35    20    21   ar
    36    20    42    1
    37    21    22   ar
    38    21    24    1
    39    22    23   ar
    40    22    43    1
    41    23    44    1
    42    24    45    1
    43    26    46    1
    44    27    47    1
    45    28    48    1
    46    29    49    1
    47    30    50    1
    48     1    31    1
    49     1    27    1
    50     2    32    1
    51     2    28    1
    52     4    34    1
    53     4    30    1
