@<TRIPOS>MOLECULE
*****
 50 53 0 0 0
SMALL
GASTEIGER

@<TRIPOS>ATOM
     1 C         -0.390873   -1.380864   1.646583 C.3        1 UNL1     0.1889
     2 C         -0.492366   -0.968291   0.153458 C.3        1 UNL1     0.1342
     3 C         -1.92546   -0.894306   -0.395388 C.3        1 UNL1     0.1174
     4 C         -2.849675   -1.951497   0.213948 C.3        1 UNL1     0.1456
     5 C         -2.718075   -2.038417   1.745447 C.3        1 UNL1     0.2326
     6 O         -1.364414   -2.308669   2.102427 O.3        1 UNL1     -0.3076
     7 O         -3.268355   -0.900434   2.433565 O.3        1 UNL1     -0.4605
     8 C         -3.895991   -1.165256   3.637505 C.ar        1 UNL1     0.1310
     9 C         -5.024398   -1.975767   3.802032 C.ar        1 UNL1     0.0226
     10 C         -5.578037   -2.197115   5.068678 C.ar        1 UNL1     0.1343
     11 C         -5.001881   -1.631925   6.205535 C.ar        1 UNL1     0.1007
     12 C         -3.899382   -0.787609   6.049292 C.ar        1 UNL1     0.1389
     13 C         -3.34448   -0.563078   4.775282 C.ar        1 UNL1     0.0229
     14 C         -5.495072   -1.899938   7.576332 C.2        1 UNL1     0.1740
     15 C         -4.62586   -1.393499   8.689677 C.3        1 UNL1     0.0520
     16 C         -4.097345   -0.019505   8.301385 C.3        1 UNL1     0.1322
     17 O         -3.319754   -0.093847   7.08611 O.3        1 UNL1     -0.4828
     18 C         -5.16684   1.075436   8.30419 C.ar        1 UNL1     -0.0067
     19 C         -4.779359   2.422394   8.149995 C.ar        1 UNL1     -0.0516
     20 C         -5.726789   3.452093   8.195367 C.ar        1 UNL1     -0.0198
     21 C         -7.060828   3.149132   8.401232 C.ar        1 UNL1     0.1169
     22 C         -7.477596   1.829927   8.523056 C.ar        1 UNL1     -0.0198
     23 C         -6.53278   0.798757   8.459277 C.ar        1 UNL1     -0.0516
     24 O         -7.949703   4.180878   8.47741 O.3        1 UNL1     -0.5068
     25 O         -6.502791   -2.560159   7.815284 O.2        1 UNL1     -0.2917
     26 O         -6.679525   -2.997008   5.160768 O.3        1 UNL1     -0.5058
     27 O         -0.263848   -0.278345   2.530383 O.3        1 UNL1     -0.3648
     28 O         0.219605   -1.938202   -0.63716 O.3        1 UNL1     -0.3841
     29 O         -2.446295   0.431079   -0.276144 O.3        1 UNL1     -0.3863
     30 O         -2.53267   -3.24135   -0.353041 O.3        1 UNL1     -0.3829
     31 H         0.553276   -1.925312   1.75721 H        1 UNL1     0.0937
     32 H         0.0   0.0   0.0 H        1 UNL1     0.0671
     33 H         -1.881819   -1.094602   -1.475063 H        1 UNL1     0.0649
     34 H         -3.89101   -1.733486   -0.047766 H        1 UNL1     0.0683
     35 H         -3.301795   -2.928717   2.010995 H        1 UNL1     0.1085
     36 H         -5.485131   -2.488529   2.964821 H        1 UNL1     0.0691
     37 H         -2.486763   0.09934   4.680318 H        1 UNL1     0.0691
     38 H         -3.807022   -2.108693   8.822072 H        1 UNL1     0.0385
     39 H         -5.209198   -1.366028   9.61636 H        1 UNL1     0.0385
     40 H         -3.374029   0.278818   9.072318 H        1 UNL1     0.0789
     41 H         -3.73722   2.68696   7.996363 H        1 UNL1     0.0623
     42 H         -5.413951   4.487664   8.087032 H        1 UNL1     0.0654
     43 H         -8.521734   1.580477   8.669549 H        1 UNL1     0.0654
     44 H         -6.895067   -0.220932   8.547744 H        1 UNL1     0.0623
     45 H         -7.460259   4.9924   8.688581 H        1 UNL1     0.2921
     46 H         -6.571867   -3.611538   5.903852 H        1 UNL1     0.2922
     47 H         -1.137823   0.041978   2.793863 H        1 UNL1     0.2126
     48 H         -0.329818   -2.114396   -1.425083 H        1 UNL1     0.2101
     49 H         -3.388376   0.395969   -0.045828 H        1 UNL1     0.2100
     50 H         -2.005846   -3.739162   0.306013 H        1 UNL1     0.2102
@<TRIPOS>BOND
     1     1     2    1
     2     1     6    1
     3     2     3    1
     4     3     4    1
     5     3    29    1
     6     3    33    1
     7     4     5    1
     8     5     6    1
     9     5     7    1
    10     5    35    1
    11     7     8    1
    12     8     9   ar
    13     8    13   ar
    14     9    10   ar
    15     9    36    1
    16    10    11   ar
    17    10    26    1
    18    11    12   ar
    19    11    14    1
    20    12    13   ar
    21    12    17    1
    22    13    37    1
    23    14    15    1
    24    14    25    2
    25    15    16    1
    26    15    38    1
    27    15    39    1
    28    16    17    1
    29    16    18    1
    30    16    40    1
    31    18    19   ar
    32    18    23   ar
    33    19    20   ar
    34    19    41    1
    35    20    21   ar
    36    20    42    1
    37    21    22   ar
    38    21    24    1
    39    22    23   ar
    40    22    43    1
    41    23    44    1
    42    24    45    1
    43    26    46    1
    44    27    47    1
    45    28    48    1
    46    29    49    1
    47    30    50    1
    48     1    31    1
    49     1    27    1
    50     2    32    1
    51     2    28    1
    52     4    34    1
    53     4    30    1
