@<TRIPOS>MOLECULE
*****
 50 53 0 0 0
SMALL
GASTEIGER

@<TRIPOS>ATOM
     1 C         0.924397   0.043836   1.978477 C.3        1 UNL1     0.1889
     2 C         -0.319102   0.022237   1.0494 C.3        1 UNL1     0.1342
     3 C         -1.291845   1.193958   1.252643 C.3        1 UNL1     0.1174
     4 C         -1.384002   1.642289   2.713336 C.3        1 UNL1     0.1456
     5 C         -0.001032   1.792151   3.373107 C.3        1 UNL1     0.2326
     6 O         0.715966   0.563015   3.283623 O.3        1 UNL1     -0.3076
     7 O         0.747409   2.920627   2.885565 O.3        1 UNL1     -0.4605
     8 C         1.601696   3.519583   3.793846 C.ar        1 UNL1     0.1310
     9 C         1.279958   3.84521   5.115871 C.ar        1 UNL1     0.0226
     10 C         2.222599   4.436211   5.965605 C.ar        1 UNL1     0.1343
     11 C         3.518416   4.694376   5.520576 C.ar        1 UNL1     0.1007
     12 C         3.839321   4.411334   4.190279 C.ar        1 UNL1     0.1389
     13 C         2.890531   3.819521   3.335302 C.ar        1 UNL1     0.0229
     14 C         4.578219   5.239877   6.400008 C.2        1 UNL1     0.1740
     15 C         5.962948   5.244455   5.822035 C.3        1 UNL1     0.0520
     16 C         5.872548   5.651898   4.357871 C.3        1 UNL1     0.1322
     17 O         5.050224   4.723429   3.617062 O.3        1 UNL1     -0.4828
     18 C         5.511986   7.12472   4.149273 C.ar        1 UNL1     -0.0067
     19 C         4.486083   7.465026   3.243773 C.ar        1 UNL1     -0.0516
     20 C         4.163384   8.804244   2.994129 C.ar        1 UNL1     -0.0198
     21 C         4.862568   9.810292   3.636651 C.ar        1 UNL1     0.1169
     22 C         5.85544   9.506108   4.558885 C.ar        1 UNL1     -0.0198
     23 C         6.165837   8.166632   4.822543 C.ar        1 UNL1     -0.0516
     24 O         4.545966   11.103393   3.339913 O.3        1 UNL1     -0.5068
     25 O         4.378575   5.596429   7.558238 O.2        1 UNL1     -0.2917
     26 O         1.845027   4.730107   7.243357 O.3        1 UNL1     -0.5058
     27 O         2.075779   0.605683   1.369023 O.3        1 UNL1     -0.3648
     28 O         -1.052683   -1.191473   1.297334 O.3        1 UNL1     -0.3841
     29 O         -0.984322   2.268553   0.362246 O.3        1 UNL1     -0.3863
     30 O         -2.151315   0.672344   3.459076 O.3        1 UNL1     -0.3829
     31 H         1.197937   -1.001408   2.159365 H        1 UNL1     0.0937
     32 H         0.0   0.0   -0.0 H        1 UNL1     0.0671
     33 H         -2.294697   0.851631   0.961403 H        1 UNL1     0.0649
     34 H         -1.921157   2.594948   2.778959 H        1 UNL1     0.0683
     35 H         -0.230054   1.95128   4.434289 H        1 UNL1     0.1085
     36 H         0.307176   3.618666   5.538357 H        1 UNL1     0.0691
     37 H         3.164935   3.61003   2.303648 H        1 UNL1     0.0691
     38 H         6.368585   4.232445   5.926057 H        1 UNL1     0.0385
     39 H         6.592364   5.926686   6.403563 H        1 UNL1     0.0385
     40 H         6.875932   5.534474   3.926649 H        1 UNL1     0.0789
     41 H         3.928658   6.694005   2.719889 H        1 UNL1     0.0623
     42 H         3.378292   9.054074   2.284744 H        1 UNL1     0.0654
     43 H         6.398998   10.285865   5.078919 H        1 UNL1     0.0654
     44 H         6.939907   7.965303   5.556796 H        1 UNL1     0.0623
     45 H         4.701557   11.24756   2.392429 H        1 UNL1     0.2921
     46 H         2.44419   4.290279   7.867028 H        1 UNL1     0.2922
     47 H         2.28181   0.137949   0.54766 H        1 UNL1     0.2126
     48 H         -0.454087   -1.930424   1.075148 H        1 UNL1     0.2101
     49 H         -1.193152   2.011369   -0.549917 H        1 UNL1     0.2100
     50 H         -3.069829   0.688425   3.118801 H        1 UNL1     0.2102
@<TRIPOS>BOND
     1     1     2    1
     2     1     6    1
     3     2     3    1
     4     3     4    1
     5     3    29    1
     6     3    33    1
     7     4     5    1
     8     5     6    1
     9     5     7    1
    10     5    35    1
    11     7     8    1
    12     8     9   ar
    13     8    13   ar
    14     9    10   ar
    15     9    36    1
    16    10    11   ar
    17    10    26    1
    18    11    12   ar
    19    11    14    1
    20    12    13   ar
    21    12    17    1
    22    13    37    1
    23    14    15    1
    24    14    25    2
    25    15    16    1
    26    15    38    1
    27    15    39    1
    28    16    17    1
    29    16    18    1
    30    16    40    1
    31    18    19   ar
    32    18    23   ar
    33    19    20   ar
    34    19    41    1
    35    20    21   ar
    36    20    42    1
    37    21    22   ar
    38    21    24    1
    39    22    23   ar
    40    22    43    1
    41    23    44    1
    42    24    45    1
    43    26    46    1
    44    27    47    1
    45    28    48    1
    46    29    49    1
    47    30    50    1
    48     1    31    1
    49     1    27    1
    50     2    32    1
    51     2    28    1
    52     4    34    1
    53     4    30    1
