@<TRIPOS>MOLECULE
*****
 50 53 0 0 0
SMALL
GASTEIGER

@<TRIPOS>ATOM
     1 C         1.930459   -0.983952   -0.275627 C.3        1 UNL1     0.1889
     2 C         0.519344   -0.574739   -0.776865 C.3        1 UNL1     0.1342
     3 C         -0.371782   -1.748158   -1.212119 C.3        1 UNL1     0.1174
     4 C         0.419332   -2.882912   -1.867551 C.3        1 UNL1     0.1456
     5 C         1.684501   -3.255758   -1.073386 C.3        1 UNL1     0.2326
     6 O         2.515656   -2.107986   -0.916319 O.3        1 UNL1     -0.3076
     7 O         1.404611   -3.926022   0.169083 O.3        1 UNL1     -0.4605
     8 C         1.220379   -3.109403   1.270318 C.ar        1 UNL1     0.1310
     9 C         1.990721   -3.13737   2.437834 C.ar        1 UNL1     0.0226
     10 C         1.735557   -2.255279   3.494578 C.ar        1 UNL1     0.1343
     11 C         0.718004   -1.306901   3.399675 C.ar        1 UNL1     0.1007
     12 C         -0.084322   -1.296572   2.255581 C.ar        1 UNL1     0.1389
     13 C         0.170759   -2.185372   1.194262 C.ar        1 UNL1     0.0229
     14 C         0.458895   -0.295847   4.450762 C.2        1 UNL1     0.1740
     15 C         -0.520427   0.781581   4.087958 C.3        1 UNL1     0.0520
     16 C         -1.665657   0.149334   3.309068 C.3        1 UNL1     0.1322
     17 O         -1.179791   -0.478829   2.102247 O.3        1 UNL1     -0.4828
     18 C         -2.576463   -0.736319   4.162751 C.ar        1 UNL1     -0.0067
     19 C         -2.8317   -0.379104   5.502701 C.ar        1 UNL1     -0.0516
     20 C         -3.621544   -1.191702   6.324768 C.ar        1 UNL1     -0.0198
     21 C         -4.15463   -2.365118   5.822035 C.ar        1 UNL1     0.1169
     22 C         -3.948716   -2.726779   4.49703 C.ar        1 UNL1     -0.0198
     23 C         -3.174162   -1.905012   3.66949 C.ar        1 UNL1     -0.0516
     24 O         -4.887389   -3.150075   6.663052 O.3        1 UNL1     -0.5068
     25 O         1.052117   -0.270992   5.525916 O.2        1 UNL1     -0.2917
     26 O         2.522756   -2.33491   4.606136 O.3        1 UNL1     -0.5058
     27 O         2.023061   -1.079209   1.136866 O.3        1 UNL1     -0.3648
     28 O         0.673542   0.291682   -1.91627 O.3        1 UNL1     -0.3841
     29 O         -1.186089   -2.196269   -0.126655 O.3        1 UNL1     -0.3863
     30 O         0.808696   -2.481428   -3.199052 O.3        1 UNL1     -0.3829
     31 H         2.605438   -0.161097   -0.535227 H        1 UNL1     0.0937
     32 H         -0.0   0.0   0.0 H        1 UNL1     0.0671
     33 H         -1.074878   -1.372653   -1.968672 H        1 UNL1     0.0649
     34 H         -0.215869   -3.769375   -1.972922 H        1 UNL1     0.0683
     35 H         2.218547   -3.947974   -1.736341 H        1 UNL1     0.1085
     36 H         2.831341   -3.813266   2.550279 H        1 UNL1     0.0691
     37 H         -0.469094   -2.157885   0.314873 H        1 UNL1     0.0691
     38 H         0.010889   1.520639   3.478841 H        1 UNL1     0.0385
     39 H         -0.865038   1.276186   5.0025 H        1 UNL1     0.0385
     40 H         -2.306232   0.967844   2.953785 H        1 UNL1     0.0789
     41 H         -2.417202   0.532277   5.923684 H        1 UNL1     0.0623
     42 H         -3.801263   -0.911434   7.359738 H        1 UNL1     0.0654
     43 H         -4.373919   -3.635897   4.088843 H        1 UNL1     0.0654
     44 H         -3.042638   -2.212935   2.636664 H        1 UNL1     0.0623
     45 H         -4.418458   -3.212274   7.510962 H        1 UNL1     0.2921
     46 H         3.31791   -2.852494   4.403039 H        1 UNL1     0.2922
     47 H         2.599641   -1.815063   1.385732 H        1 UNL1     0.2126
     48 H         0.712782   1.204167   -1.570492 H        1 UNL1     0.2101
     49 H         -0.636601   -2.34201   0.659867 H        1 UNL1     0.2100
     50 H         0.425594   -1.596387   -3.371241 H        1 UNL1     0.2102
@<TRIPOS>BOND
     1     1     2    1
     2     1     6    1
     3     2     3    1
     4     3     4    1
     5     3    29    1
     6     3    33    1
     7     4     5    1
     8     5     6    1
     9     5     7    1
    10     5    35    1
    11     7     8    1
    12     8     9   ar
    13     8    13   ar
    14     9    10   ar
    15     9    36    1
    16    10    11   ar
    17    10    26    1
    18    11    12   ar
    19    11    14    1
    20    12    13   ar
    21    12    17    1
    22    13    37    1
    23    14    15    1
    24    14    25    2
    25    15    16    1
    26    15    38    1
    27    15    39    1
    28    16    17    1
    29    16    18    1
    30    16    40    1
    31    18    19   ar
    32    18    23   ar
    33    19    20   ar
    34    19    41    1
    35    20    21   ar
    36    20    42    1
    37    21    22   ar
    38    21    24    1
    39    22    23   ar
    40    22    43    1
    41    23    44    1
    42    24    45    1
    43    26    46    1
    44    27    47    1
    45    28    48    1
    46    29    49    1
    47    30    50    1
    48     1    31    1
    49     1    27    1
    50     2    32    1
    51     2    28    1
    52     4    34    1
    53     4    30    1
