@<TRIPOS>MOLECULE
*****
 50 53 0 0 0
SMALL
GASTEIGER

@<TRIPOS>ATOM
     1 C         0.663799   -1.957165   0.706882 C.3        1 UNL1     0.1889
     2 C         -0.096749   -1.051236   -0.298504 C.3        1 UNL1     0.1342
     3 C         -1.58599   -1.389354   -0.466738 C.3        1 UNL1     0.1174
     4 C         -1.869902   -2.889607   -0.358333 C.3        1 UNL1     0.1456
     5 C         -1.163212   -3.538544   0.845758 C.3        1 UNL1     0.2326
     6 O         0.242102   -3.311871   0.764636 O.3        1 UNL1     -0.3076
     7 O         -1.72562   -3.157011   2.114399 O.3        1 UNL1     -0.4605
     8 C         -1.280832   -3.869439   3.213553 C.ar        1 UNL1     0.1310
     9 C         0.011205   -3.81293   3.747169 C.ar        1 UNL1     0.0226
     10 C         0.361041   -4.562027   4.876935 C.ar        1 UNL1     0.1343
     11 C         -0.580312   -5.368367   5.5153 C.ar        1 UNL1     0.1007
     12 C         -1.8623   -5.464653   4.967558 C.ar        1 UNL1     0.1389
     13 C         -2.213061   -4.713379   3.830023 C.ar        1 UNL1     0.0229
     14 C         -0.288461   -6.115746   6.760451 C.2        1 UNL1     0.1740
     15 C         -1.472493   -6.748882   7.430344 C.3        1 UNL1     0.0520
     16 C         -2.37589   -7.338159   6.355829 C.3        1 UNL1     0.1322
     17 O         -2.834254   -6.309757   5.450643 O.3        1 UNL1     -0.4828
     18 C         -1.790225   -8.573702   5.667966 C.ar        1 UNL1     -0.0067
     19 C         -1.530791   -8.537304   4.282476 C.ar        1 UNL1     -0.0516
     20 C         -1.039866   -9.665017   3.613732 C.ar        1 UNL1     -0.0198
     21 C         -0.811731   -10.834733   4.31626 C.ar        1 UNL1     0.1169
     22 C         -1.025855   -10.891484   5.687306 C.ar        1 UNL1     -0.0198
     23 C         -1.499285   -9.758361   6.35958 C.ar        1 UNL1     -0.0516
     24 O         -0.369421   -11.923869   3.624489 O.3        1 UNL1     -0.5068
     25 O         0.825459   -6.162336   7.275715 O.2        1 UNL1     -0.2917
     26 O         1.638141   -4.463069   5.346837 O.3        1 UNL1     -0.5058
     27 O         0.781862   -1.389727   2.00182 O.3        1 UNL1     -0.3648
     28 O         0.521747   -1.185477   -1.591619 O.3        1 UNL1     -0.3841
     29 O         -2.386806   -0.608835   0.42299 O.3        1 UNL1     -0.3863
     30 O         -1.424612   -3.544495   -1.566028 O.3        1 UNL1     -0.3829
     31 H         1.696312   -2.025503   0.347262 H        1 UNL1     0.0937
     32 H         0.0   0.0   0.0 H        1 UNL1     0.0671
     33 H         -1.887773   -1.08102   -1.477469 H        1 UNL1     0.0649
     34 H         -2.949149   -3.061276   -0.279863 H        1 UNL1     0.0683
     35 H         -1.321896   -4.614049   0.697479 H        1 UNL1     0.1085
     36 H         0.772361   -3.162554   3.330307 H        1 UNL1     0.0691
     37 H         -3.21736   -4.806888   3.422431 H        1 UNL1     0.0691
     38 H         -1.990067   -5.967017   7.996322 H        1 UNL1     0.0385
     39 H         -1.121292   -7.507708   8.137888 H        1 UNL1     0.0385
     40 H         -3.288106   -7.689477   6.856786 H        1 UNL1     0.0789
     41 H         -1.710283   -7.633937   3.706835 H        1 UNL1     0.0623
     42 H         -0.855062   -9.627989   2.54299 H        1 UNL1     0.0654
     43 H         -0.836246   -11.797864   6.249831 H        1 UNL1     0.0654
     44 H         -1.645313   -9.835175   7.432716 H        1 UNL1     0.0623
     45 H         0.573089   -12.049846   3.820757 H        1 UNL1     0.2921
     46 H         1.870612   -5.274531   5.825272 H        1 UNL1     0.2922
     47 H         1.713294   -1.249142   2.222114 H        1 UNL1     0.2126
     48 H         -0.061071   -0.72974   -2.229083 H        1 UNL1     0.2101
     49 H         -3.315691   -0.63921   0.143624 H        1 UNL1     0.2100
     50 H         -1.624811   -4.499813   -1.482359 H        1 UNL1     0.2102
@<TRIPOS>BOND
     1     1     2    1
     2     1     6    1
     3     2     3    1
     4     3     4    1
     5     3    29    1
     6     3    33    1
     7     4     5    1
     8     5     6    1
     9     5     7    1
    10     5    35    1
    11     7     8    1
    12     8     9   ar
    13     8    13   ar
    14     9    10   ar
    15     9    36    1
    16    10    11   ar
    17    10    26    1
    18    11    12   ar
    19    11    14    1
    20    12    13   ar
    21    12    17    1
    22    13    37    1
    23    14    15    1
    24    14    25    2
    25    15    16    1
    26    15    38    1
    27    15    39    1
    28    16    17    1
    29    16    18    1
    30    16    40    1
    31    18    19   ar
    32    18    23   ar
    33    19    20   ar
    34    19    41    1
    35    20    21   ar
    36    20    42    1
    37    21    22   ar
    38    21    24    1
    39    22    23   ar
    40    22    43    1
    41    23    44    1
    42    24    45    1
    43    26    46    1
    44    27    47    1
    45    28    48    1
    46    29    49    1
    47    30    50    1
    48     1    31    1
    49     1    27    1
    50     2    32    1
    51     2    28    1
    52     4    34    1
    53     4    30    1
