@<TRIPOS>MOLECULE
*****
 50 53 0 0 0
SMALL
GASTEIGER

@<TRIPOS>ATOM
     1 C         -0.336881   -1.330552   1.699101 C.3        1 UNL1     0.1889
     2 C         -0.465048   -0.974601   0.193508 C.3        1 UNL1     0.1342
     3 C         -1.90534   -0.957543   -0.341032 C.3        1 UNL1     0.1174
     4 C         -2.794883   -2.015793   0.316188 C.3        1 UNL1     0.1456
     5 C         -2.644785   -2.044253   1.848189 C.3        1 UNL1     0.2326
     6 O         -1.280765   -2.26633   2.198901 O.3        1 UNL1     -0.3076
     7 O         -3.217495   -0.896958   2.501671 O.3        1 UNL1     -0.4605
     8 C         -3.72918   -1.113488   3.768487 C.ar        1 UNL1     0.1310
     9 C         -4.54866   -2.185095   4.13918 C.ar        1 UNL1     0.0226
     10 C         -5.003457   -2.326793   5.455608 C.ar        1 UNL1     0.1343
     11 C         -4.629923   -1.412423   6.439601 C.ar        1 UNL1     0.1007
     12 C         -3.845579   -0.315635   6.072662 C.ar        1 UNL1     0.1389
     13 C         -3.390586   -0.17194   4.748365 C.ar        1 UNL1     0.0229
     14 C         -5.012552   -1.559952   7.862972 C.2        1 UNL1     0.1740
     15 C         -4.342286   -0.615185   8.816758 C.3        1 UNL1     0.0520
     16 C         -4.268791   0.75784   8.163031 C.3        1 UNL1     0.1322
     17 O         -3.508982   0.701368   6.935607 O.3        1 UNL1     -0.4828
     18 C         -5.626145   1.453923   8.037402 C.ar        1 UNL1     -0.0067
     19 C         -6.001642   2.02164   6.802528 C.ar        1 UNL1     -0.0516
     20 C         -7.215026   2.706521   6.666147 C.ar        1 UNL1     -0.0198
     21 C         -8.056386   2.836631   7.756565 C.ar        1 UNL1     0.1169
     22 C         -7.729671   2.25969   8.976907 C.ar        1 UNL1     -0.0198
     23 C         -6.52486   1.558894   9.108704 C.ar        1 UNL1     -0.0516
     24 O         -9.212103   3.542926   7.595735 O.3        1 UNL1     -0.5068
     25 O         -5.764025   -2.440519   8.273305 O.2        1 UNL1     -0.2917
     26 O         -5.800797   -3.393652   5.751656 O.3        1 UNL1     -0.5058
     27 O         -0.229547   -0.194103   2.541567 O.3        1 UNL1     -0.3648
     28 O         0.263774   -1.953474   -0.570254 O.3        1 UNL1     -0.3841
     29 O         -2.45959   0.357317   -0.263036 O.3        1 UNL1     -0.3863
     30 O         -2.45007   -3.31651   -0.208149 O.3        1 UNL1     -0.3829
     31 H         0.622395   -1.846015   1.818125 H        1 UNL1     0.0937
     32 H         0.0   0.0   0.0 H        1 UNL1     0.0671
     33 H         -1.867908   -1.195258   -1.413324 H        1 UNL1     0.0649
     34 H         -3.844315   -1.834388   0.058927 H        1 UNL1     0.0683
     35 H         -3.202014   -2.939284   2.151987 H        1 UNL1     0.1085
     36 H         -4.82829   -2.959767   3.433622 H        1 UNL1     0.0691
     37 H         -2.782069   0.691446   4.488051 H        1 UNL1     0.0691
     38 H         -3.34116   -1.008244   9.023588 H        1 UNL1     0.0385
     39 H         -4.903441   -0.596476   9.757254 H        1 UNL1     0.0385
     40 H         -3.672967   1.400275   8.825444 H        1 UNL1     0.0789
     41 H         -5.354499   1.941159   5.933978 H        1 UNL1     0.0623
     42 H         -7.487849   3.150139   5.711797 H        1 UNL1     0.0654
     43 H         -8.388189   2.342616   9.833287 H        1 UNL1     0.0654
     44 H         -6.306497   1.111892   10.073769 H        1 UNL1     0.0623
     45 H         -8.983428   4.450764   7.338334 H        1 UNL1     0.2921
     46 H         -5.399018   -3.908563   6.469188 H        1 UNL1     0.2922
     47 H         0.515065   0.358287   2.265382 H        1 UNL1     0.2126
     48 H         1.196587   -1.890466   -0.288081 H        1 UNL1     0.2101
     49 H         -2.018676   0.93974   -0.90192 H        1 UNL1     0.2100
     50 H         -2.682462   -3.329276   -1.15975 H        1 UNL1     0.2102
@<TRIPOS>BOND
     1     1     2    1
     2     1     6    1
     3     2     3    1
     4     3     4    1
     5     3    29    1
     6     3    33    1
     7     4     5    1
     8     5     6    1
     9     5     7    1
    10     5    35    1
    11     7     8    1
    12     8     9   ar
    13     8    13   ar
    14     9    10   ar
    15     9    36    1
    16    10    11   ar
    17    10    26    1
    18    11    12   ar
    19    11    14    1
    20    12    13   ar
    21    12    17    1
    22    13    37    1
    23    14    15    1
    24    14    25    2
    25    15    16    1
    26    15    38    1
    27    15    39    1
    28    16    17    1
    29    16    18    1
    30    16    40    1
    31    18    19   ar
    32    18    23   ar
    33    19    20   ar
    34    19    41    1
    35    20    21   ar
    36    20    42    1
    37    21    22   ar
    38    21    24    1
    39    22    23   ar
    40    22    43    1
    41    23    44    1
    42    24    45    1
    43    26    46    1
    44    27    47    1
    45    28    48    1
    46    29    49    1
    47    30    50    1
    48     1    31    1
    49     1    27    1
    50     2    32    1
    51     2    28    1
    52     4    34    1
    53     4    30    1
