@<TRIPOS>MOLECULE
*****
 50 53 0 0 0
SMALL
GASTEIGER

@<TRIPOS>ATOM
     1 C         -0.245437   -1.424936   1.637108 C.3        1 UNL1     0.1889
     2 C         -0.44627   -0.989232   0.160704 C.3        1 UNL1     0.1342
     3 C         -1.909766   -0.960554   -0.306008 C.3        1 UNL1     0.1174
     4 C         -2.757884   -2.063649   0.331954 C.3        1 UNL1     0.1456
     5 C         -2.537068   -2.173541   1.851667 C.3        1 UNL1     0.2326
     6 O         -1.156266   -2.397847   2.127241 O.3        1 UNL1     -0.3076
     7 O         -3.090021   -1.07048   2.592491 O.3        1 UNL1     -0.4605
     8 C         -3.551037   -1.364076   3.863236 C.ar        1 UNL1     0.1310
     9 C         -4.349877   -2.46153   4.201986 C.ar        1 UNL1     0.0226
     10 C         -4.752517   -2.682877   5.524403 C.ar        1 UNL1     0.1343
     11 C         -4.345908   -1.824439   6.544989 C.ar        1 UNL1     0.1007
     12 C         -3.582164   -0.702329   6.212803 C.ar        1 UNL1     0.1389
     13 C         -3.179644   -0.47853   4.882645 C.ar        1 UNL1     0.0229
     14 C         -4.672256   -2.057279   7.970975 C.2        1 UNL1     0.1740
     15 C         -3.970475   -1.164513   8.951801 C.3        1 UNL1     0.0520
     16 C         -3.929611   0.244684   8.376953 C.3        1 UNL1     0.1322
     17 O         -3.217698   0.265321   7.120043 O.3        1 UNL1     -0.4828
     18 C         -5.294457   0.936681   8.344388 C.ar        1 UNL1     -0.0067
     19 C         -5.713762   1.585968   7.165056 C.ar        1 UNL1     -0.0516
     20 C         -6.935006   2.268719   7.116318 C.ar        1 UNL1     -0.0198
     21 C         -7.740759   2.315631   8.239878 C.ar        1 UNL1     0.1169
     22 C         -7.370632   1.657756   9.405659 C.ar        1 UNL1     -0.0198
     23 C         -6.158013   0.959378   9.448992 C.ar        1 UNL1     -0.0516
     24 O         -8.9053   3.021921   8.16639 O.3        1 UNL1     -0.5068
     25 O         -5.402609   -2.965814   8.357801 O.2        1 UNL1     -0.2917
     26 O         -5.532155   -3.771089   5.788117 O.3        1 UNL1     -0.5058
     27 O         -0.110286   -0.334756   2.534898 O.3        1 UNL1     -0.3648
     28 O         0.255925   -1.916249   -0.687981 O.3        1 UNL1     -0.3841
     29 O         -2.472412   0.341323   -0.130854 O.3        1 UNL1     -0.3863
     30 O         -2.425151   -3.329671   -0.278102 O.3        1 UNL1     -0.3829
     31 H         0.723204   -1.934471   1.683902 H        1 UNL1     0.0937
     32 H         0.0   0.0   0.0 H        1 UNL1     0.0671
     33 H         -1.919521   -1.13915   -1.390318 H        1 UNL1     0.0649
     34 H         -3.81975   -1.881228   0.133047 H        1 UNL1     0.0683
     35 H         -3.071095   -3.090437   2.130941 H        1 UNL1     0.1085
     36 H         -4.652588   -3.19598   3.463698 H        1 UNL1     0.0691
     37 H         -2.586229   0.403066   4.649962 H        1 UNL1     0.0691
     38 H         -2.960027   -1.561398   9.096733 H        1 UNL1     0.0385
     39 H         -4.494817   -1.204688   9.91265 H        1 UNL1     0.0385
     40 H         -3.311926   0.852005   9.05234 H        1 UNL1     0.0789
     41 H         -5.095105   1.57151   6.272473 H        1 UNL1     0.0623
     42 H         -7.241724   2.775508   6.20467 H        1 UNL1     0.0654
     43 H         -8.001073   1.675407   10.286649 H        1 UNL1     0.0654
     44 H         -5.905352   0.448021   10.372854 H        1 UNL1     0.0623
     45 H         -8.689045   3.953064   7.996321 H        1 UNL1     0.2921
     46 H         -5.100801   -4.323069   6.459431 H        1 UNL1     0.2922
     47 H         0.609222   0.245994   2.250472 H        1 UNL1     0.2126
     48 H         1.203744   -1.834768   -0.467224 H        1 UNL1     0.2101
     49 H         -2.073111   0.961047   -0.76196 H        1 UNL1     0.2100
     50 H         -2.706164   -3.29554   -1.215961 H        1 UNL1     0.2102
@<TRIPOS>BOND
     1     1     2    1
     2     1     6    1
     3     2     3    1
     4     3     4    1
     5     3    29    1
     6     3    33    1
     7     4     5    1
     8     5     6    1
     9     5     7    1
    10     5    35    1
    11     7     8    1
    12     8     9   ar
    13     8    13   ar
    14     9    10   ar
    15     9    36    1
    16    10    11   ar
    17    10    26    1
    18    11    12   ar
    19    11    14    1
    20    12    13   ar
    21    12    17    1
    22    13    37    1
    23    14    15    1
    24    14    25    2
    25    15    16    1
    26    15    38    1
    27    15    39    1
    28    16    17    1
    29    16    18    1
    30    16    40    1
    31    18    19   ar
    32    18    23   ar
    33    19    20   ar
    34    19    41    1
    35    20    21   ar
    36    20    42    1
    37    21    22   ar
    38    21    24    1
    39    22    23   ar
    40    22    43    1
    41    23    44    1
    42    24    45    1
    43    26    46    1
    44    27    47    1
    45    28    48    1
    46    29    49    1
    47    30    50    1
    48     1    31    1
    49     1    27    1
    50     2    32    1
    51     2    28    1
    52     4    34    1
    53     4    30    1
