@<TRIPOS>MOLECULE
*****
 50 53 0 0 0
SMALL
GASTEIGER

@<TRIPOS>ATOM
     1 C         -0.232847   -1.19602   1.812767 C.3        1 UNL1     0.1889
     2 C         -0.531842   -0.905522   0.317389 C.3        1 UNL1     0.1342
     3 C         -2.022958   -0.755454   -0.021013 C.3        1 UNL1     0.1174
     4 C         -2.916966   -1.672961   0.81687 C.3        1 UNL1     0.1456
     5 C         -2.558834   -1.639531   2.313864 C.3        1 UNL1     0.2326
     6 O         -1.189622   -1.993979   2.494117 O.3        1 UNL1     -0.3076
     7 O         -2.913275   -0.403634   2.960588 O.3        1 UNL1     -0.4605
     8 C         -3.274188   -0.498235   4.292624 C.ar        1 UNL1     0.1310
     9 C         -4.148676   -1.449096   4.829684 C.ar        1 UNL1     0.0226
     10 C         -4.438921   -1.473605   6.199012 C.ar        1 UNL1     0.1343
     11 C         -3.8426   -0.56184   7.069027 C.ar        1 UNL1     0.1007
     12 C         -2.999519   0.418235   6.538505 C.ar        1 UNL1     0.1389
     13 C         -2.709902   0.444323   5.161236 C.ar        1 UNL1     0.0229
     14 C         -4.048287   -0.595276   8.535563 C.2        1 UNL1     0.1740
     15 C         -3.160256   0.311   9.336572 C.3        1 UNL1     0.0520
     16 C         -3.025548   1.633173   8.593827 C.3        1 UNL1     0.1322
     17 O         -2.444437   1.43023   7.286848 O.3        1 UNL1     -0.4828
     18 C         -4.304434   2.474109   8.595818 C.ar        1 UNL1     -0.0067
     19 C         -4.766939   3.034093   7.387216 C.ar        1 UNL1     -0.0516
     20 C         -5.906383   3.847106   7.361914 C.ar        1 UNL1     -0.0198
     21 C         -6.586349   4.113078   8.53696 C.ar        1 UNL1     0.1169
     22 C         -6.174764   3.548947   9.737457 C.ar        1 UNL1     -0.0198
     23 C         -5.046071   2.720937   9.760053 C.ar        1 UNL1     -0.0516
     24 O         -7.669638   4.939865   8.479428 O.3        1 UNL1     -0.5068
     25 O         -4.829911   -1.362513   9.091347 O.2        1 UNL1     -0.2917
     26 O         -5.300903   -2.425918   6.659092 O.3        1 UNL1     -0.5058
     27 O         0.10764   -0.036993   2.556751 O.3        1 UNL1     -0.3648
     28 O         -0.02159   -1.997308   -0.470235 O.3        1 UNL1     -0.3841
     29 O         -2.421998   0.615236   0.043091 O.3        1 UNL1     -0.3863
     30 O         -2.784858   -3.029119   0.338253 O.3        1 UNL1     -0.3829
     31 H         0.675166   -1.808395   1.837004 H        1 UNL1     0.0937
     32 H         0.0   0.0   0.0 H        1 UNL1     0.0671
     33 H         -2.159933   -1.050421   -1.070752 H        1 UNL1     0.0649
     34 H         -3.967554   -1.38915   0.68992 H        1 UNL1     0.0683
     35 H         -3.15788   -2.450168   2.747326 H        1 UNL1     0.1085
     36 H         -4.600738   -2.219608   4.214809 H        1 UNL1     0.0691
     37 H         -2.051262   1.218241   4.772986 H        1 UNL1     0.0691
     38 H         -2.188984   -0.184317   9.440586 H        1 UNL1     0.0385
     39 H         -3.587446   0.439709   10.336932 H        1 UNL1     0.0385
     40 H         -2.281868   2.233968   9.134664 H        1 UNL1     0.0789
     41 H         -4.245525   2.847849   6.452822 H        1 UNL1     0.0623
     42 H         -6.24616   4.282734   6.425543 H        1 UNL1     0.0654
     43 H         -6.708646   3.738457   10.661018 H        1 UNL1     0.0654
     44 H         -4.75904   2.288555   10.713732 H        1 UNL1     0.0623
     45 H         -7.372506   5.814278   8.179712 H        1 UNL1     0.2921
     46 H         -4.866662   -2.947478   7.352505 H        1 UNL1     0.2922
     47 H         0.853483   0.419397   2.142886 H        1 UNL1     0.2126
     48 H         0.947915   -1.997743   -0.352793 H        1 UNL1     0.2101
     49 H         -2.02327   1.109688   -0.690617 H        1 UNL1     0.2100
     50 H         -3.152669   -3.065844   -0.568983 H        1 UNL1     0.2102
@<TRIPOS>BOND
     1     1     2    1
     2     1     6    1
     3     2     3    1
     4     3     4    1
     5     3    29    1
     6     3    33    1
     7     4     5    1
     8     5     6    1
     9     5     7    1
    10     5    35    1
    11     7     8    1
    12     8     9   ar
    13     8    13   ar
    14     9    10   ar
    15     9    36    1
    16    10    11   ar
    17    10    26    1
    18    11    12   ar
    19    11    14    1
    20    12    13   ar
    21    12    17    1
    22    13    37    1
    23    14    15    1
    24    14    25    2
    25    15    16    1
    26    15    38    1
    27    15    39    1
    28    16    17    1
    29    16    18    1
    30    16    40    1
    31    18    19   ar
    32    18    23   ar
    33    19    20   ar
    34    19    41    1
    35    20    21   ar
    36    20    42    1
    37    21    22   ar
    38    21    24    1
    39    22    23   ar
    40    22    43    1
    41    23    44    1
    42    24    45    1
    43    26    46    1
    44    27    47    1
    45    28    48    1
    46    29    49    1
    47    30    50    1
    48     1    31    1
    49     1    27    1
    50     2    32    1
    51     2    28    1
    52     4    34    1
    53     4    30    1
