@<TRIPOS>MOLECULE
*****
 50 53 0 0 0
SMALL
GASTEIGER

@<TRIPOS>ATOM
     1 C         -0.473919   -1.962952   -0.832482 C.3        1 UNL1     0.1889
     2 C         -0.805508   -0.74179   0.066825 C.3        1 UNL1     0.1342
     3 C         -1.052177   -1.081904   1.544642 C.3        1 UNL1     0.1174
     4 C         -1.742227   -2.434931   1.735086 C.3        1 UNL1     0.1456
     5 C         -1.103429   -3.548142   0.884756 C.3        1 UNL1     0.2326
     6 O         -1.122646   -3.179462   -0.492406 O.3        1 UNL1     -0.3076
     7 O         0.20078   -3.94496   1.346161 O.3        1 UNL1     -0.4605
     8 C         0.607276   -3.404472   2.552876 C.ar        1 UNL1     0.1310
     9 C         -0.066353   -2.402764   3.260058 C.ar        1 UNL1     0.0226
     10 C         0.417916   -1.93203   4.486351 C.ar        1 UNL1     0.1343
     11 C         1.575911   -2.46892   5.047278 C.ar        1 UNL1     0.1007
     12 C         2.279601   -3.440723   4.330897 C.ar        1 UNL1     0.1389
     13 C         1.793896   -3.912001   3.096629 C.ar        1 UNL1     0.0229
     14 C         2.08623   -2.068247   6.37889 C.2        1 UNL1     0.1740
     15 C         3.209236   -2.902348   6.921735 C.3        1 UNL1     0.0520
     16 C         4.164296   -3.225625   5.780986 C.3        1 UNL1     0.1322
     17 O         3.486811   -3.95994   4.737499 O.3        1 UNL1     -0.4828
     18 C         4.967161   -2.019002   5.288856 C.ar        1 UNL1     -0.0067
     19 C         4.322892   -1.022458   4.527259 C.ar        1 UNL1     -0.0516
     20 C         5.037946   0.069812   4.021682 C.ar        1 UNL1     -0.0198
     21 C         6.396062   0.17296   4.263981 C.ar        1 UNL1     0.1169
     22 C         7.051966   -0.774915   5.038683 C.ar        1 UNL1     -0.0198
     23 C         6.333501   -1.8576   5.55989 C.ar        1 UNL1     -0.0516
     24 O         7.066641   1.230667   3.723629 O.3        1 UNL1     -0.5068
     25 O         1.588809   -1.168549   7.050902 O.2        1 UNL1     -0.2917
     26 O         -0.285509   -0.952823   5.125046 O.3        1 UNL1     -0.5058
     27 O         0.916876   -2.151254   -1.039894 O.3        1 UNL1     -0.3648
     28 O         -2.002031   -0.117594   -0.43459 O.3        1 UNL1     -0.3841
     29 O         0.155171   -0.965191   2.300168 O.3        1 UNL1     -0.3863
     30 O         -3.134016   -2.312513   1.369537 O.3        1 UNL1     -0.3829
     31 H         -0.866518   -1.733303   -1.829079 H        1 UNL1     0.0937
     32 H         0.0   0.0   0.0 H        1 UNL1     0.0671
     33 H         -1.728526   -0.319546   1.955836 H        1 UNL1     0.0649
     34 H         -1.712509   -2.724516   2.791333 H        1 UNL1     0.0683
     35 H         -1.791587   -4.395218   0.997802 H        1 UNL1     0.1085
     36 H         -1.00159   -1.984338   2.90457 H        1 UNL1     0.0691
     37 H         2.360936   -4.668288   2.558123 H        1 UNL1     0.0691
     38 H         2.771539   -3.814611   7.340932 H        1 UNL1     0.0385
     39 H         3.702745   -2.355859   7.732646 H        1 UNL1     0.0385
     40 H         4.909952   -3.930498   6.172996 H        1 UNL1     0.0789
     41 H         3.259481   -1.085254   4.315447 H        1 UNL1     0.0623
     42 H         4.532145   0.825497   3.425765 H        1 UNL1     0.0654
     43 H         8.112246   -0.695909   5.24719 H        1 UNL1     0.0654
     44 H         6.875837   -2.573734   6.1697 H        1 UNL1     0.0623
     45 H         6.415432   1.862076   3.377268 H        1 UNL1     0.2921
     46 H         -0.036104   -0.934358   6.062525 H        1 UNL1     0.2922
     47 H         1.39343   -1.323567   -0.885974 H        1 UNL1     0.2126
     48 H         -1.819062   0.134777   -1.360097 H        1 UNL1     0.2101
     49 H         0.220151   -1.697494   2.933654 H        1 UNL1     0.2100
     50 H         -3.181766   -2.20136   0.397386 H        1 UNL1     0.2102
@<TRIPOS>BOND
     1     1     2    1
     2     1     6    1
     3     2     3    1
     4     3     4    1
     5     3    29    1
     6     3    33    1
     7     4     5    1
     8     5     6    1
     9     5     7    1
    10     5    35    1
    11     7     8    1
    12     8     9   ar
    13     8    13   ar
    14     9    10   ar
    15     9    36    1
    16    10    11   ar
    17    10    26    1
    18    11    12   ar
    19    11    14    1
    20    12    13   ar
    21    12    17    1
    22    13    37    1
    23    14    15    1
    24    14    25    2
    25    15    16    1
    26    15    38    1
    27    15    39    1
    28    16    17    1
    29    16    18    1
    30    16    40    1
    31    18    19   ar
    32    18    23   ar
    33    19    20   ar
    34    19    41    1
    35    20    21   ar
    36    20    42    1
    37    21    22   ar
    38    21    24    1
    39    22    23   ar
    40    22    43    1
    41    23    44    1
    42    24    45    1
    43    26    46    1
    44    27    47    1
    45    28    48    1
    46    29    49    1
    47    30    50    1
    48     1    31    1
    49     1    27    1
    50     2    32    1
    51     2    28    1
    52     4    34    1
    53     4    30    1
