@<TRIPOS>MOLECULE
*****
 50 53 0 0 0
SMALL
GASTEIGER

@<TRIPOS>ATOM
     1 C         -0.351144   -1.338842   1.689676 C.3        1 UNL1     0.1889
     2 C         -0.472014   -0.972728   0.185917 C.3        1 UNL1     0.1342
     3 C         -1.91039   -0.942958   -0.353207 C.3        1 UNL1     0.1174
     4 C         -2.808963   -1.999439   0.294503 C.3        1 UNL1     0.1456
     5 C         -2.664121   -2.038382   1.826779 C.3        1 UNL1     0.2326
     6 O         -1.302741   -2.271524   2.180554 O.3        1 UNL1     -0.3076
     7 O         -3.231515   -0.891452   2.485517 O.3        1 UNL1     -0.4605
     8 C         -3.755578   -1.114085   3.7462 C.ar        1 UNL1     0.1310
     9 C         -4.58798   -2.181137   4.100894 C.ar        1 UNL1     0.0226
     10 C         -5.054873   -2.329903   5.412299 C.ar        1 UNL1     0.1343
     11 C         -4.680972   -1.427567   6.4072 C.ar        1 UNL1     0.1007
     12 C         -3.8835   -0.33504   6.056193 C.ar        1 UNL1     0.1389
     13 C         -3.416328   -0.184211   4.736938 C.ar        1 UNL1     0.0229
     14 C         -5.076634   -1.583759   7.826076 C.2        1 UNL1     0.1740
     15 C         -4.405495   -0.653541   8.793452 C.3        1 UNL1     0.0520
     16 C         -4.313898   0.724313   8.152291 C.3        1 UNL1     0.1322
     17 O         -3.544586   0.671308   6.930645 O.3        1 UNL1     -0.4828
     18 C         -5.66366   1.434107   8.021671 C.ar        1 UNL1     -0.0067
     19 C         -6.01693   2.029668   6.793371 C.ar        1 UNL1     -0.0516
     20 C         -7.222677   2.727275   6.653803 C.ar        1 UNL1     -0.0198
     21 C         -8.078408   2.842455   7.734675 C.ar        1 UNL1     0.1169
     22 C         -7.77378   2.238372   8.947575 C.ar        1 UNL1     -0.0198
     23 C         -6.576668   1.525017   9.082117 C.ar        1 UNL1     -0.0516
     24 O         -9.225975   3.561481   7.571911 O.3        1 UNL1     -0.5068
     25 O         -5.839589   -2.460763   8.222621 O.2        1 UNL1     -0.2917
     26 O         -5.86448   -3.391772   5.692575 O.3        1 UNL1     -0.5058
     27 O         -0.239207   -0.208366   2.539547 O.3        1 UNL1     -0.3648
     28 O         0.252948   -1.951578   -0.581539 O.3        1 UNL1     -0.3841
     29 O         -2.456331   0.374981   -0.268838 O.3        1 UNL1     -0.3863
     30 O         -2.470886   -3.2991   -0.236793 O.3        1 UNL1     -0.3829
     31 H         0.604361   -1.861281   1.80862 H        1 UNL1     0.0937
     32 H         0.0   0.0   0.0 H        1 UNL1     0.0671
     33 H         -1.870959   -1.174255   -1.426831 H        1 UNL1     0.0649
     34 H         -3.856338   -1.809599   0.03495 H        1 UNL1     0.0683
     35 H         -3.22816   -2.931627   2.123178 H        1 UNL1     0.1085
     36 H         -4.868976   -2.94706   3.386385 H        1 UNL1     0.0691
     37 H         -2.79771   0.675659   4.489091 H        1 UNL1     0.0691
     38 H         -3.409791   -1.057705   9.004999 H        1 UNL1     0.0385
     39 H         -4.974161   -0.637683   9.729479 H        1 UNL1     0.0385
     40 H         -3.717604   1.355426   8.825083 H        1 UNL1     0.0789
     41 H         -5.35815   1.961266   5.932568 H        1 UNL1     0.0623
     42 H         -7.478286   3.192266   5.704877 H        1 UNL1     0.0654
     43 H         -8.44374   2.309558   9.796101 H        1 UNL1     0.0654
     44 H         -6.375692   1.056884   10.040921 H        1 UNL1     0.0623
     45 H         -8.986211   4.474426   7.344399 H        1 UNL1     0.2921
     46 H         -5.474093   -3.915796   6.409798 H        1 UNL1     0.2922
     47 H         0.504004   0.345888   2.263323 H        1 UNL1     0.2126
     48 H         1.188569   -1.882706   -0.310243 H        1 UNL1     0.2101
     49 H         -2.015369   0.956428   -0.908577 H        1 UNL1     0.2100
     50 H         -2.705449   -3.306336   -1.187918 H        1 UNL1     0.2102
@<TRIPOS>BOND
     1     1     2    1
     2     1     6    1
     3     2     3    1
     4     3     4    1
     5     3    29    1
     6     3    33    1
     7     4     5    1
     8     5     6    1
     9     5     7    1
    10     5    35    1
    11     7     8    1
    12     8     9   ar
    13     8    13   ar
    14     9    10   ar
    15     9    36    1
    16    10    11   ar
    17    10    26    1
    18    11    12   ar
    19    11    14    1
    20    12    13   ar
    21    12    17    1
    22    13    37    1
    23    14    15    1
    24    14    25    2
    25    15    16    1
    26    15    38    1
    27    15    39    1
    28    16    17    1
    29    16    18    1
    30    16    40    1
    31    18    19   ar
    32    18    23   ar
    33    19    20   ar
    34    19    41    1
    35    20    21   ar
    36    20    42    1
    37    21    22   ar
    38    21    24    1
    39    22    23   ar
    40    22    43    1
    41    23    44    1
    42    24    45    1
    43    26    46    1
    44    27    47    1
    45    28    48    1
    46    29    49    1
    47    30    50    1
    48     1    31    1
    49     1    27    1
    50     2    32    1
    51     2    28    1
    52     4    34    1
    53     4    30    1
