@<TRIPOS>MOLECULE
*****
 50 53 0 0 0
SMALL
GASTEIGER

@<TRIPOS>ATOM
     1 C         -1.360995   1.674437   -0.338758 C.3        1 UNL1     0.1889
     2 C         -0.024769   0.925003   -0.589337 C.3        1 UNL1     0.1342
     3 C         1.237736   1.746333   -0.286082 C.3        1 UNL1     0.1174
     4 C         1.072327   3.232163   -0.614815 C.3        1 UNL1     0.1456
     5 C         -0.251819   3.810423   -0.083199 C.3        1 UNL1     0.2326
     6 O         -1.351138   3.068829   -0.607033 O.3        1 UNL1     -0.3076
     7 O         -0.287088   3.938347   1.349879 O.3        1 UNL1     -0.4605
     8 C         -1.31545   4.707045   1.864758 C.ar        1 UNL1     0.1310
     9 C         -1.802487   4.636537   3.174386 C.ar        1 UNL1     0.0226
     10 C         -2.83925   5.47195   3.606947 C.ar        1 UNL1     0.1343
     11 C         -3.398555   6.415559   2.746354 C.ar        1 UNL1     0.1007
     12 C         -2.948597   6.467224   1.424366 C.ar        1 UNL1     0.1389
     13 C         -1.907935   5.625297   0.988919 C.ar        1 UNL1     0.0229
     14 C         -4.437995   7.380024   3.17475 C.2        1 UNL1     0.1740
     15 C         -4.763504   8.463996   2.189561 C.3        1 UNL1     0.0520
     16 C         -4.785852   7.855832   0.793999 C.3        1 UNL1     0.1322
     17 O         -3.501694   7.28214   0.464021 O.3        1 UNL1     -0.4828
     18 C         -5.977783   6.928452   0.545016 C.ar        1 UNL1     -0.0067
     19 C         -7.139861   7.443007   -0.065738 C.ar        1 UNL1     -0.0516
     20 C         -8.26497   6.634043   -0.264911 C.ar        1 UNL1     -0.0198
     21 C         -8.243233   5.313859   0.147968 C.ar        1 UNL1     0.1169
     22 C         -7.10184   4.769304   0.722008 C.ar        1 UNL1     -0.0198
     23 C         -5.970151   5.57306   0.904526 C.ar        1 UNL1     -0.0516
     24 O         -9.370811   4.566898   -0.028154 O.3        1 UNL1     -0.5068
     25 O         -4.956905   7.36476   4.287847 O.2        1 UNL1     -0.2917
     26 O         -3.269226   5.352279   4.896282 O.3        1 UNL1     -0.5058
     27 O         -1.941698   1.388056   0.923603 O.3        1 UNL1     -0.3648
     28 O         0.033024   0.547349   -1.977409 O.3        1 UNL1     -0.3841
     29 O         1.678786   1.521874   1.054524 O.3        1 UNL1     -0.3863
     30 O         1.113335   3.407755   -2.047706 O.3        1 UNL1     -0.3829
     31 H         -2.081782   1.279434   -1.062994 H        1 UNL1     0.0937
     32 H         0.0   0.0   0.0 H        1 UNL1     0.0671
     33 H         2.046297   1.367235   -0.926577 H        1 UNL1     0.0649
     34 H         1.909471   3.802892   -0.197849 H        1 UNL1     0.0683
     35 H         -0.301133   4.811724   -0.529118 H        1 UNL1     0.1085
     36 H         -1.372007   3.96307   3.90736 H        1 UNL1     0.0691
     37 H         -1.576478   5.68436   -0.045557 H        1 UNL1     0.0691
     38 H         -3.987004   9.231815   2.273398 H        1 UNL1     0.0385
     39 H         -5.723462   8.917488   2.459014 H        1 UNL1     0.0385
     40 H         -4.907907   8.683424   0.08216 H        1 UNL1     0.0789
     41 H         -7.18527   8.478471   -0.390397 H        1 UNL1     0.0623
     42 H         -9.159257   7.045714   -0.726203 H        1 UNL1     0.0654
     43 H         -7.068786   3.732641   1.035293 H        1 UNL1     0.0654
     44 H         -5.092214   5.111862   1.346531 H        1 UNL1     0.0623
     45 H         -9.764364   4.395616   0.842762 H        1 UNL1     0.2921
     46 H         -3.357841   6.234212   5.290939 H        1 UNL1     0.2922
     47 H         -1.990883   0.431626   1.060286 H        1 UNL1     0.2126
     48 H         -0.695476   -0.085961   -2.125525 H        1 UNL1     0.2101
     49 H         1.202798   2.110778   1.661501 H        1 UNL1     0.2100
     50 H         1.913597   3.929466   -2.264755 H        1 UNL1     0.2102
@<TRIPOS>BOND
     1     1     2    1
     2     1     6    1
     3     2     3    1
     4     3     4    1
     5     3    29    1
     6     3    33    1
     7     4     5    1
     8     5     6    1
     9     5     7    1
    10     5    35    1
    11     7     8    1
    12     8     9   ar
    13     8    13   ar
    14     9    10   ar
    15     9    36    1
    16    10    11   ar
    17    10    26    1
    18    11    12   ar
    19    11    14    1
    20    12    13   ar
    21    12    17    1
    22    13    37    1
    23    14    15    1
    24    14    25    2
    25    15    16    1
    26    15    38    1
    27    15    39    1
    28    16    17    1
    29    16    18    1
    30    16    40    1
    31    18    19   ar
    32    18    23   ar
    33    19    20   ar
    34    19    41    1
    35    20    21   ar
    36    20    42    1
    37    21    22   ar
    38    21    24    1
    39    22    23   ar
    40    22    43    1
    41    23    44    1
    42    24    45    1
    43    26    46    1
    44    27    47    1
    45    28    48    1
    46    29    49    1
    47    30    50    1
    48     1    31    1
    49     1    27    1
    50     2    32    1
    51     2    28    1
    52     4    34    1
    53     4    30    1
