@<TRIPOS>MOLECULE
*****
 50 53 0 0 0
SMALL
GASTEIGER

@<TRIPOS>ATOM
     1 C         -0.331177   -1.3276   1.702529 C.3        1 UNL1     0.1889
     2 C         -0.462104   -0.975447   0.19628 C.3        1 UNL1     0.1342
     3 C         -1.903065   -0.963618   -0.336596 C.3        1 UNL1     0.1174
     4 C         -2.788883   -2.022835   0.324087 C.3        1 UNL1     0.1456
     5 C         -2.636908   -2.047377   1.85597 C.3        1 UNL1     0.2326
     6 O         -1.271863   -2.264856   2.205576 O.3        1 UNL1     -0.3076
     7 O         -3.212043   -0.900191   2.507509 O.3        1 UNL1     -0.4605
     8 C         -3.721209   -1.115144   3.775608 C.ar        1 UNL1     0.1310
     9 C         -4.536964   -2.188261   4.150126 C.ar        1 UNL1     0.0226
     10 C         -4.989391   -2.328093   5.46757 C.ar        1 UNL1     0.1343
     11 C         -4.617109   -1.410227   6.448778 C.ar        1 UNL1     0.1007
     12 C         -3.836559   -0.312023   6.078005 C.ar        1 UNL1     0.1389
     13 C         -3.383954   -0.170213   4.752687 C.ar        1 UNL1     0.0229
     14 C         -4.997192   -1.555416   7.873071 C.2        1 UNL1     0.1740
     15 C         -4.328315   -0.606349   8.823558 C.3        1 UNL1     0.0520
     16 C         -4.259852   0.765289   8.166383 C.3        1 UNL1     0.1322
     17 O         -3.501696   0.708072   6.937971 O.3        1 UNL1     -0.4828
     18 C         -5.619445   1.457048   8.041078 C.ar        1 UNL1     -0.0067
     19 C         -5.999234   2.019004   6.804883 C.ar        1 UNL1     -0.0516
     20 C         -7.214849   2.699928   6.668555 C.ar        1 UNL1     -0.0198
     21 C         -8.054203   2.8318   7.760307 C.ar        1 UNL1     0.1169
     22 C         -7.7232   2.260428   8.982113 C.ar        1 UNL1     -0.0198
     23 C         -6.516123   1.563547   9.113935 C.ar        1 UNL1     -0.0516
     24 O         -9.212265   3.534208   7.599323 O.3        1 UNL1     -0.5068
     25 O         -5.745448   -2.437198   8.286664 O.2        1 UNL1     -0.2917
     26 O         -5.783131   -3.39658   5.767399 O.3        1 UNL1     -0.5058
     27 O         -0.226019   -0.188934   2.542273 O.3        1 UNL1     -0.3648
     28 O         0.268544   -1.95403   -0.566107 O.3        1 UNL1     -0.3841
     29 O         -2.460883   0.349869   -0.260945 O.3        1 UNL1     -0.3863
     30 O         -2.441065   -3.323782   -0.197689 O.3        1 UNL1     -0.3829
     31 H         0.62967   -1.840118   1.821595 H        1 UNL1     0.0937
     32 H         0.0   0.0   0.0 H        1 UNL1     0.0671
     33 H         -1.866231   -1.203677   -1.408386 H        1 UNL1     0.0649
     34 H         -3.839119   -1.84494   0.067652 H        1 UNL1     0.0683
     35 H         -3.191283   -2.94326   2.162467 H        1 UNL1     0.1085
     36 H         -4.815344   -2.965474   3.446872 H        1 UNL1     0.0691
     37 H         -2.778381   0.694332   4.489368 H        1 UNL1     0.0691
     38 H         -3.325725   -0.995941   9.029854 H        1 UNL1     0.0385
     39 H         -4.888131   -0.587006   9.764839 H        1 UNL1     0.0385
     40 H         -3.664953   1.411096   8.826344 H        1 UNL1     0.0789
     41 H         -5.353755   1.937053   5.935233 H        1 UNL1     0.0623
     42 H         -7.491003   3.139142   5.713128 H        1 UNL1     0.0654
     43 H         -8.380088   2.344745   9.839609 H        1 UNL1     0.0654
     44 H         -6.294396   1.120836   10.080211 H        1 UNL1     0.0623
     45 H         -8.986727   4.441704   7.337981 H        1 UNL1     0.2921
     46 H         -5.378767   -3.90855   6.485583 H        1 UNL1     0.2922
     47 H         0.516726   0.364893   2.263949 H        1 UNL1     0.2126
     48 H         1.201509   -1.887782   -0.285181 H        1 UNL1     0.2101
     49 H         -2.022344   0.932056   -0.901677 H        1 UNL1     0.2100
     50 H         -2.674538   -3.339369   -1.148982 H        1 UNL1     0.2102
@<TRIPOS>BOND
     1     1     2    1
     2     1     6    1
     3     2     3    1
     4     3     4    1
     5     3    29    1
     6     3    33    1
     7     4     5    1
     8     5     6    1
     9     5     7    1
    10     5    35    1
    11     7     8    1
    12     8     9   ar
    13     8    13   ar
    14     9    10   ar
    15     9    36    1
    16    10    11   ar
    17    10    26    1
    18    11    12   ar
    19    11    14    1
    20    12    13   ar
    21    12    17    1
    22    13    37    1
    23    14    15    1
    24    14    25    2
    25    15    16    1
    26    15    38    1
    27    15    39    1
    28    16    17    1
    29    16    18    1
    30    16    40    1
    31    18    19   ar
    32    18    23   ar
    33    19    20   ar
    34    19    41    1
    35    20    21   ar
    36    20    42    1
    37    21    22   ar
    38    21    24    1
    39    22    23   ar
    40    22    43    1
    41    23    44    1
    42    24    45    1
    43    26    46    1
    44    27    47    1
    45    28    48    1
    46    29    49    1
    47    30    50    1
    48     1    31    1
    49     1    27    1
    50     2    32    1
    51     2    28    1
    52     4    34    1
    53     4    30    1
