@<TRIPOS>MOLECULE
*****
 50 53 0 0 0
SMALL
GASTEIGER

@<TRIPOS>ATOM
     1 C         -0.325008   -1.338196   1.695407 C.3        1 UNL1     0.1889
     2 C         -0.461774   -0.976464   0.19195 C.3        1 UNL1     0.1342
     3 C         -1.904842   -0.960627   -0.335087 C.3        1 UNL1     0.1174
     4 C         -2.788514   -2.023611   0.322413 C.3        1 UNL1     0.1456
     5 C         -2.630444   -2.05791   1.853491 C.3        1 UNL1     0.2326
     6 O         -1.264118   -2.278199   2.196266 O.3        1 UNL1     -0.3076
     7 O         -3.202441   -0.914614   2.514562 O.3        1 UNL1     -0.4605
     8 C         -3.707074   -1.137463   3.783109 C.ar        1 UNL1     0.1310
     9 C         -4.522132   -2.21248   4.153673 C.ar        1 UNL1     0.0226
     10 C         -4.969796   -2.360565   5.471843 C.ar        1 UNL1     0.1343
     11 C         -4.593316   -1.449305   6.457596 C.ar        1 UNL1     0.1007
     12 C         -3.813431   -0.349205   6.09107 C.ar        1 UNL1     0.1389
     13 C         -3.365617   -0.19909   4.765038 C.ar        1 UNL1     0.0229
     14 C         -4.968246   -1.603483   7.88231 C.2        1 UNL1     0.1740
     15 C         -4.295266   -0.661008   8.836452 C.3        1 UNL1     0.0520
     16 C         -4.228342   0.714817   8.187926 C.3        1 UNL1     0.1322
     17 O         -3.474751   0.66509   6.956384 O.3        1 UNL1     -0.4828
     18 C         -5.587943   1.408213   8.072116 C.ar        1 UNL1     -0.0067
     19 C         -5.97113   1.980033   6.841505 C.ar        1 UNL1     -0.0516
     20 C         -7.186793   2.662609   6.714156 C.ar        1 UNL1     -0.0198
     21 C         -8.022813   2.786335   7.809414 C.ar        1 UNL1     0.1169
     22 C         -7.688459   2.205235   9.025707 C.ar        1 UNL1     -0.0198
     23 C         -6.481356   1.506742   9.148452 C.ar        1 UNL1     -0.0516
     24 O         -9.180985   3.490559   7.657406 O.3        1 UNL1     -0.5068
     25 O         -5.71554   -2.487464   8.292938 O.2        1 UNL1     -0.2917
     26 O         -5.763113   -3.430481   5.767669 O.3        1 UNL1     -0.5058
     27 O         -0.21597   -0.204912   2.541909 O.3        1 UNL1     -0.3648
     28 O         0.265371   -1.950529   -0.57952 O.3        1 UNL1     -0.3841
     29 O         -2.46174   0.352602   -0.248907 O.3        1 UNL1     -0.3863
     30 O         -2.443388   -3.321385   -0.208963 O.3        1 UNL1     -0.3829
     31 H         0.636067   -1.851882   1.807395 H        1 UNL1     0.0937
     32 H         0.0   0.0   0.0 H        1 UNL1     0.0671
     33 H         -1.872393   -1.193918   -1.408513 H        1 UNL1     0.0649
     34 H         -3.839681   -1.843632   0.0713 H        1 UNL1     0.0683
     35 H         -3.184012   -2.955468   2.156527 H        1 UNL1     0.1085
     36 H         -4.803598   -2.984948   3.446432 H        1 UNL1     0.0691
     37 H         -2.760462   0.666768   4.505095 H        1 UNL1     0.0691
     38 H         -3.292174   -1.052548   9.036525 H        1 UNL1     0.0385
     39 H         -4.8516   -0.647417   9.779896 H        1 UNL1     0.0385
     40 H         -3.630603   1.355966   8.849859 H        1 UNL1     0.0789
     41 H         -5.328294   1.904583   5.969313 H        1 UNL1     0.0623
     42 H         -7.465571   3.109439   5.763032 H        1 UNL1     0.0654
     43 H         -8.342739   2.283153   9.885799 H        1 UNL1     0.0654
     44 H         -6.256974   1.056358   10.110559 H        1 UNL1     0.0623
     45 H         -8.955755   4.399964   7.402513 H        1 UNL1     0.2921
     46 H         -5.356437   -3.947343   6.481027 H        1 UNL1     0.2922
     47 H         0.525919   0.350337   2.264132 H        1 UNL1     0.2126
     48 H         1.19948   -1.886472   -0.301905 H        1 UNL1     0.2101
     49 H         -2.025487   0.938635   -0.887689 H        1 UNL1     0.2100
     50 H         -2.680659   -3.330851   -1.159397 H        1 UNL1     0.2102
@<TRIPOS>BOND
     1     1     2    1
     2     1     6    1
     3     2     3    1
     4     3     4    1
     5     3    29    1
     6     3    33    1
     7     4     5    1
     8     5     6    1
     9     5     7    1
    10     5    35    1
    11     7     8    1
    12     8     9   ar
    13     8    13   ar
    14     9    10   ar
    15     9    36    1
    16    10    11   ar
    17    10    26    1
    18    11    12   ar
    19    11    14    1
    20    12    13   ar
    21    12    17    1
    22    13    37    1
    23    14    15    1
    24    14    25    2
    25    15    16    1
    26    15    38    1
    27    15    39    1
    28    16    17    1
    29    16    18    1
    30    16    40    1
    31    18    19   ar
    32    18    23   ar
    33    19    20   ar
    34    19    41    1
    35    20    21   ar
    36    20    42    1
    37    21    22   ar
    38    21    24    1
    39    22    23   ar
    40    22    43    1
    41    23    44    1
    42    24    45    1
    43    26    46    1
    44    27    47    1
    45    28    48    1
    46    29    49    1
    47    30    50    1
    48     1    31    1
    49     1    27    1
    50     2    32    1
    51     2    28    1
    52     4    34    1
    53     4    30    1
