@<TRIPOS>MOLECULE
*****
 50 53 0 0 0
SMALL
GASTEIGER

@<TRIPOS>ATOM
     1 C         0.194648   -1.866361   1.11786 C.3        1 UNL1     0.1889
     2 C         0.395918   -1.01032   -0.161446 C.3        1 UNL1     0.1342
     3 C         -0.235324   -1.59869   -1.432594 C.3        1 UNL1     0.1174
     4 C         -0.181627   -3.128045   -1.46871 C.3        1 UNL1     0.1456
     5 C         -0.624181   -3.765728   -0.139097 C.3        1 UNL1     0.2326
     6 O         0.182808   -3.273608   0.928356 O.3        1 UNL1     -0.3076
     7 O         -2.03538   -3.641327   0.114601 O.3        1 UNL1     -0.4605
     8 C         -2.711036   -2.714806   -0.659076 C.ar        1 UNL1     0.1310
     9 C         -2.158139   -1.985194   -1.717033 C.ar        1 UNL1     0.0226
     10 C         -2.931168   -1.07989   -2.453751 C.ar        1 UNL1     0.1343
     11 C         -4.283266   -0.899645   -2.165339 C.ar        1 UNL1     0.1007
     12 C         -4.836483   -1.592112   -1.084958 C.ar        1 UNL1     0.1389
     13 C         -4.058336   -2.500364   -0.342666 C.ar        1 UNL1     0.0229
     14 C         -5.1667   -0.019113   -2.964316 C.2        1 UNL1     0.1740
     15 C         -6.631735   -0.115781   -2.654679 C.3        1 UNL1     0.0520
     16 C         -6.798586   -0.232871   -1.145902 C.3        1 UNL1     0.1322
     17 O         -6.127268   -1.410193   -0.645588 O.3        1 UNL1     -0.4828
     18 C         -6.469454   1.055391   -0.387761 C.ar        1 UNL1     -0.0067
     19 C         -6.145097   2.221248   -1.11149 C.ar        1 UNL1     -0.0516
     20 C         -5.793058   3.403287   -0.449059 C.ar        1 UNL1     -0.0198
     21 C         -5.754598   3.430244   0.933555 C.ar        1 UNL1     0.1169
     22 C         -6.101217   2.307825   1.674413 C.ar        1 UNL1     -0.0198
     23 C         -6.47117   1.130948   1.012483 C.ar        1 UNL1     -0.0516
     24 O         -5.370562   4.588366   1.543204 O.3        1 UNL1     -0.5068
     25 O         -4.7627   0.6926   -3.880141 O.2        1 UNL1     -0.2917
     26 O         -2.331388   -0.398784   -3.472546 O.3        1 UNL1     -0.5058
     27 O         -0.893738   -1.436753   1.920131 O.3        1 UNL1     -0.3648
     28 O         1.808779   -0.880156   -0.405547 O.3        1 UNL1     -0.3841
     29 O         -1.555161   -1.086503   -1.627093 O.3        1 UNL1     -0.3863
     30 O         1.169616   -3.547934   -1.757718 O.3        1 UNL1     -0.3829
     31 H         1.075711   -1.70016   1.747292 H        1 UNL1     0.0937
     32 H         0.0   0.0   0.0 H        1 UNL1     0.0671
     33 H         0.346628   -1.239852   -2.292994 H        1 UNL1     0.0649
     34 H         -0.814857   -3.505456   -2.279254 H        1 UNL1     0.0683
     35 H         -0.378877   -4.82823   -0.26073 H        1 UNL1     0.1085
     36 H         -1.127722   -2.121449   -2.026543 H        1 UNL1     0.0691
     37 H         -4.51242   -3.026246   0.494441 H        1 UNL1     0.0691
     38 H         -7.020234   -1.003524   -3.165078 H        1 UNL1     0.0385
     39 H         -7.143219   0.763548   -3.060811 H        1 UNL1     0.0385
     40 H         -7.86327   -0.420482   -0.951559 H        1 UNL1     0.0789
     41 H         -6.158978   2.223283   -2.197517 H        1 UNL1     0.0623
     42 H         -5.533483   4.29231   -1.018507 H        1 UNL1     0.0654
     43 H         -6.089035   2.322318   2.757719 H        1 UNL1     0.0654
     44 H         -6.746047   0.276196   1.622962 H        1 UNL1     0.0623
     45 H         -5.133172   5.232364   0.856451 H        1 UNL1     0.2921
     46 H         -2.980906   0.181298   -3.900381 H        1 UNL1     0.2922
     47 H         -0.843796   -0.48215   2.068784 H        1 UNL1     0.2126
     48 H         2.253197   -0.993693   0.456621 H        1 UNL1     0.2101
     49 H         -1.962149   -0.888512   -0.768633 H        1 UNL1     0.2100
     50 H         1.129606   -4.231449   -2.458374 H        1 UNL1     0.2102
@<TRIPOS>BOND
     1     1     2    1
     2     1     6    1
     3     2     3    1
     4     3     4    1
     5     3    29    1
     6     3    33    1
     7     4     5    1
     8     5     6    1
     9     5     7    1
    10     5    35    1
    11     7     8    1
    12     8     9   ar
    13     8    13   ar
    14     9    10   ar
    15     9    36    1
    16    10    11   ar
    17    10    26    1
    18    11    12   ar
    19    11    14    1
    20    12    13   ar
    21    12    17    1
    22    13    37    1
    23    14    15    1
    24    14    25    2
    25    15    16    1
    26    15    38    1
    27    15    39    1
    28    16    17    1
    29    16    18    1
    30    16    40    1
    31    18    19   ar
    32    18    23   ar
    33    19    20   ar
    34    19    41    1
    35    20    21   ar
    36    20    42    1
    37    21    22   ar
    38    21    24    1
    39    22    23   ar
    40    22    43    1
    41    23    44    1
    42    24    45    1
    43    26    46    1
    44    27    47    1
    45    28    48    1
    46    29    49    1
    47    30    50    1
    48     1    31    1
    49     1    27    1
    50     2    32    1
    51     2    28    1
    52     4    34    1
    53     4    30    1
