@<TRIPOS>MOLECULE
*****
 50 53 0 0 0
SMALL
GASTEIGER

@<TRIPOS>ATOM
     1 C         -0.326437   -1.366791   1.672162 C.3        1 UNL1     0.1889
     2 C         -0.462153   -0.979465   0.174998 C.3        1 UNL1     0.1342
     3 C         -1.904882   -0.954258   -0.352603 C.3        1 UNL1     0.1174
     4 C         -2.789251   -2.028045   0.286139 C.3        1 UNL1     0.1456
     5 C         -2.632163   -2.088461   1.81651 C.3        1 UNL1     0.2326
     6 O         -1.266113   -2.314932   2.156345 O.3        1 UNL1     -0.3076
     7 O         -3.204278   -0.956435   2.496599 O.3        1 UNL1     -0.4605
     8 C         -3.719978   -1.203117   3.756253 C.ar        1 UNL1     0.1310
     9 C         -4.542761   -2.281772   4.098057 C.ar        1 UNL1     0.0226
     10 C         -5.001555   -2.454997   5.409318 C.ar        1 UNL1     0.1343
     11 C         -4.628854   -1.566067   6.416659 C.ar        1 UNL1     0.1007
     12 C         -3.841163   -0.462254   6.079135 C.ar        1 UNL1     0.1389
     13 C         -3.382147   -0.286838   4.760057 C.ar        1 UNL1     0.0229
     14 C         -5.015792   -1.747924   7.834884 C.2        1 UNL1     0.1740
     15 C         -4.346212   -0.828506   8.813599 C.3        1 UNL1     0.0520
     16 C         -4.267976   0.560106   8.194249 C.3        1 UNL1     0.1322
     17 O         -3.504841   0.532354   6.967903 O.3        1 UNL1     -0.4828
     18 C         -5.623495   1.262047   8.08214 C.ar        1 UNL1     -0.0067
     19 C         -5.987608   1.874682   6.865458 C.ar        1 UNL1     -0.0516
     20 C         -7.19908   2.565633   6.743452 C.ar        1 UNL1     -0.0198
     21 C         -8.04983   2.657182   7.830499 C.ar        1 UNL1     0.1169
     22 C         -7.734379   2.035921   9.0319 C.ar        1 UNL1     -0.0198
     23 C         -6.531454   1.329243   9.148672 C.ar        1 UNL1     -0.0516
     24 O         -9.203402   3.370346   7.685341 O.3        1 UNL1     -0.5068
     25 O         -5.770277   -2.636728   8.221231 O.2        1 UNL1     -0.2917
     26 O         -5.80198   -3.527109   5.676679 O.3        1 UNL1     -0.5058
     27 O         -0.217638   -0.24812   2.537913 O.3        1 UNL1     -0.3648
     28 O         0.265225   -1.940447   -0.612492 O.3        1 UNL1     -0.3841
     29 O         -2.461488   0.357465   -0.244417 O.3        1 UNL1     -0.3863
     30 O         -2.444129   -3.316674   -0.267048 O.3        1 UNL1     -0.3829
     31 H         0.634431   -1.882573   1.77599 H        1 UNL1     0.0937
     32 H         0.0   0.0   0.0 H        1 UNL1     0.0671
     33 H         -1.871813   -1.16924   -1.429825 H        1 UNL1     0.0649
     34 H         -3.840211   -1.843527   0.037465 H        1 UNL1     0.0683
     35 H         -3.186159   -2.990899   2.103864 H        1 UNL1     0.1085
     36 H         -4.822046   -3.038141   3.37278 H        1 UNL1     0.0691
     37 H         -2.771076   0.581392   4.522865 H        1 UNL1     0.0691
     38 H         -3.346506   -1.228747   9.013399 H        1 UNL1     0.0385
     39 H         -4.909968   -0.831841   9.752719 H        1 UNL1     0.0385
     40 H         -3.672658   1.184655   8.873996 H        1 UNL1     0.0789
     41 H         -5.332962   1.82493   6.000233 H        1 UNL1     0.0623
     42 H         -7.463101   3.043939   5.803491 H        1 UNL1     0.0654
     43 H         -8.40029   2.088573   9.884953 H        1 UNL1     0.0654
     44 H         -6.321989   0.847237   10.098745 H        1 UNL1     0.0623
     45 H         -8.971242   4.293373   7.493406 H        1 UNL1     0.2921
     46 H         -5.403999   -4.059733   6.383315 H        1 UNL1     0.2922
     47 H         0.511667   0.32239   2.25775 H        1 UNL1     0.2126
     48 H         1.205424   -1.851654   -0.363745 H        1 UNL1     0.2101
     49 H         -2.030545   0.952173   -0.87877 H        1 UNL1     0.2100
     50 H         -2.686013   -3.311839   -1.216353 H        1 UNL1     0.2102
@<TRIPOS>BOND
     1     1     2    1
     2     1     6    1
     3     2     3    1
     4     3     4    1
     5     3    29    1
     6     3    33    1
     7     4     5    1
     8     5     6    1
     9     5     7    1
    10     5    35    1
    11     7     8    1
    12     8     9   ar
    13     8    13   ar
    14     9    10   ar
    15     9    36    1
    16    10    11   ar
    17    10    26    1
    18    11    12   ar
    19    11    14    1
    20    12    13   ar
    21    12    17    1
    22    13    37    1
    23    14    15    1
    24    14    25    2
    25    15    16    1
    26    15    38    1
    27    15    39    1
    28    16    17    1
    29    16    18    1
    30    16    40    1
    31    18    19   ar
    32    18    23   ar
    33    19    20   ar
    34    19    41    1
    35    20    21   ar
    36    20    42    1
    37    21    22   ar
    38    21    24    1
    39    22    23   ar
    40    22    43    1
    41    23    44    1
    42    24    45    1
    43    26    46    1
    44    27    47    1
    45    28    48    1
    46    29    49    1
    47    30    50    1
    48     1    31    1
    49     1    27    1
    50     2    32    1
    51     2    28    1
    52     4    34    1
    53     4    30    1
