@<TRIPOS>MOLECULE
*****
 50 53 0 0 0
SMALL
GASTEIGER

@<TRIPOS>ATOM
     1 C         -0.350906   -1.339423   1.689265 C.3        1 UNL1     0.1889
     2 C         -0.470873   -0.973376   0.185417 C.3        1 UNL1     0.1342
     3 C         -1.908785   -0.945514   -0.355042 C.3        1 UNL1     0.1174
     4 C         -2.806534   -2.003249   0.291766 C.3        1 UNL1     0.1456
     5 C         -2.663063   -2.042094   1.824173 C.3        1 UNL1     0.2326
     6 O         -1.301699   -2.273421   2.1792 O.3        1 UNL1     -0.3076
     7 O         -3.232617   -0.895973   2.482456 O.3        1 UNL1     -0.4605
     8 C         -3.760941   -1.120185   3.741079 C.ar        1 UNL1     0.1310
     9 C         -4.59459   -2.187642   4.091602 C.ar        1 UNL1     0.0226
     10 C         -5.065912   -2.338054   5.401234 C.ar        1 UNL1     0.1343
     11 C         -4.695323   -1.437008   6.398541 C.ar        1 UNL1     0.1007
     12 C         -3.896615   -0.344079   6.051619 C.ar        1 UNL1     0.1389
     13 C         -3.424988   -0.191594   4.734141 C.ar        1 UNL1     0.0229
     14 C         -5.095778   -1.594987   7.815874 C.2        1 UNL1     0.1740
     15 C         -4.427858   -0.66604   8.786693 C.3        1 UNL1     0.0520
     16 C         -4.334028   0.712624   8.147602 C.3        1 UNL1     0.1322
     17 O         -3.560602   0.661135   6.928492 O.3        1 UNL1     -0.4828
     18 C         -5.683305   1.422659   8.013335 C.ar        1 UNL1     -0.0067
     19 C         -6.032399   2.019806   6.784611 C.ar        1 UNL1     -0.0516
     20 C         -7.237633   2.717658   6.641866 C.ar        1 UNL1     -0.0198
     21 C         -8.096999   2.831506   7.719991 C.ar        1 UNL1     0.1169
     22 C         -7.796496   2.225861   8.93314 C.ar        1 UNL1     -0.0198
     23 C         -6.59988   1.512268   9.07081 C.ar        1 UNL1     -0.0516
     24 O         -9.243974   3.550803   7.554274 O.3        1 UNL1     -0.5068
     25 O         -5.860111   -2.472454   8.208724 O.2        1 UNL1     -0.2917
     26 O         -5.876514   -3.400234   5.677423 O.3        1 UNL1     -0.5058
     27 O         -0.241286   -0.208851   2.53931 O.3        1 UNL1     -0.3648
     28 O         0.256123   -1.951197   -0.581427 O.3        1 UNL1     -0.3841
     29 O         -2.456584   0.371681   -0.271098 O.3        1 UNL1     -0.3863
     30 O         -2.466208   -3.302418   -0.239296 O.3        1 UNL1     -0.3829
     31 H         0.605192   -1.860579   1.809065 H        1 UNL1     0.0937
     32 H         0.0   0.0   0.0 H        1 UNL1     0.0671
     33 H         -1.868045   -1.176689   -1.428643 H        1 UNL1     0.0649
     34 H         -3.853922   -1.814806   0.031251 H        1 UNL1     0.0683
     35 H         -3.22617   -2.936119   2.119992 H        1 UNL1     0.1085
     36 H         -4.873213   -2.952638   3.375173 H        1 UNL1     0.0691
     37 H         -2.805493   0.668557   4.489479 H        1 UNL1     0.0691
     38 H         -3.432894   -1.070529   9.001083 H        1 UNL1     0.0385
     39 H         -4.999677   -0.651345   9.720815 H        1 UNL1     0.0385
     40 H         -3.739975   1.342846   8.823207 H        1 UNL1     0.0789
     41 H         -5.370722   1.952465   5.925949 H        1 UNL1     0.0623
     42 H         -7.490015   3.183872   5.692677 H        1 UNL1     0.0654
     43 H         -8.469311   2.296002   9.779491 H        1 UNL1     0.0654
     44 H         -6.402164   1.042901   10.029689 H        1 UNL1     0.0623
     45 H         -9.00335   4.46917   7.350752 H        1 UNL1     0.2921
     46 H         -5.488576   -3.925194   6.39529 H        1 UNL1     0.2922
     47 H         0.494602   0.352124   2.257111 H        1 UNL1     0.2126
     48 H         1.194778   -1.86556   -0.32584 H        1 UNL1     0.2101
     49 H         -2.015814   0.953764   -0.91039 H        1 UNL1     0.2100
     50 H         -2.699877   -3.30991   -1.19064 H        1 UNL1     0.2102
@<TRIPOS>BOND
     1     1     2    1
     2     1     6    1
     3     2     3    1
     4     3     4    1
     5     3    29    1
     6     3    33    1
     7     4     5    1
     8     5     6    1
     9     5     7    1
    10     5    35    1
    11     7     8    1
    12     8     9   ar
    13     8    13   ar
    14     9    10   ar
    15     9    36    1
    16    10    11   ar
    17    10    26    1
    18    11    12   ar
    19    11    14    1
    20    12    13   ar
    21    12    17    1
    22    13    37    1
    23    14    15    1
    24    14    25    2
    25    15    16    1
    26    15    38    1
    27    15    39    1
    28    16    17    1
    29    16    18    1
    30    16    40    1
    31    18    19   ar
    32    18    23   ar
    33    19    20   ar
    34    19    41    1
    35    20    21   ar
    36    20    42    1
    37    21    22   ar
    38    21    24    1
    39    22    23   ar
    40    22    43    1
    41    23    44    1
    42    24    45    1
    43    26    46    1
    44    27    47    1
    45    28    48    1
    46    29    49    1
    47    30    50    1
    48     1    31    1
    49     1    27    1
    50     2    32    1
    51     2    28    1
    52     4    34    1
    53     4    30    1
