@<TRIPOS>MOLECULE
*****
 50 53 0 0 0
SMALL
GASTEIGER

@<TRIPOS>ATOM
     1 C         -0.330375   -1.327223   1.702979 C.3        1 UNL1     0.1889
     2 C         -0.461678   -0.975575   0.196644 C.3        1 UNL1     0.1342
     3 C         -1.902726   -0.964491   -0.336012 C.3        1 UNL1     0.1174
     4 C         -2.788012   -2.023869   0.325126 C.3        1 UNL1     0.1456
     5 C         -2.63579   -2.04789   1.856992 C.3        1 UNL1     0.2326
     6 O         -1.270603   -2.264709   2.206453 O.3        1 UNL1     -0.3076
     7 O         -3.21129   -0.900741   2.508277 O.3        1 UNL1     -0.4605
     8 C         -3.720173   -1.11552   3.776518 C.ar        1 UNL1     0.1310
     9 C         -4.535434   -2.188855   4.151485 C.ar        1 UNL1     0.0226
     10 C         -4.9876   -2.328475   5.469041 C.ar        1 UNL1     0.1343
     11 C         -4.61554   -1.410164   6.449916 C.ar        1 UNL1     0.1007
     12 C         -3.835492   -0.311755   6.078692 C.ar        1 UNL1     0.1389
     13 C         -3.383149   -0.170159   4.753261 C.ar        1 UNL1     0.0229
     14 C         -4.995343   -1.555079   7.874311 C.2        1 UNL1     0.1740
     15 C         -4.326704   -0.605455   8.824409 C.3        1 UNL1     0.0520
     16 C         -4.2589   0.766013   8.166812 C.3        1 UNL1     0.1322
     17 O         -3.500911   0.708734   6.9383 O.3        1 UNL1     -0.4828
     18 C         -5.618792   1.457183   8.04151 C.ar        1 UNL1     -0.0067
     19 C         -5.999   2.018613   6.805205 C.ar        1 UNL1     -0.0516
     20 C         -7.214913   2.699003   6.668861 C.ar        1 UNL1     -0.0198
     21 C         -8.054151   2.830862   7.760703 C.ar        1 UNL1     0.1169
     22 C         -7.722728   2.259991   8.982629 C.ar        1 UNL1     -0.0198
     23 C         -6.515347   1.56364   9.114474 C.ar        1 UNL1     -0.0516
     24 O         -9.212523   3.532752   7.599687 O.3        1 UNL1     -0.5068
     25 O         -5.743177   -2.43704   8.288284 O.2        1 UNL1     -0.2917
     26 O         -5.780861   -3.397194   5.769313 O.3        1 UNL1     -0.5058
     27 O         -0.22555   -0.188262   2.542365 O.3        1 UNL1     -0.3648
     28 O         0.269249   -1.954091   -0.565562 O.3        1 UNL1     -0.3841
     29 O         -2.461065   0.348793   -0.260669 O.3        1 UNL1     -0.3863
     30 O         -2.439747   -3.324831   -0.196313 O.3        1 UNL1     -0.3829
     31 H         0.630698   -1.839315   1.82205 H        1 UNL1     0.0937
     32 H         0.0   0.0   0.0 H        1 UNL1     0.0671
     33 H         -1.86596   -1.204857   -1.407736 H        1 UNL1     0.0649
     34 H         -3.838359   -1.846477   0.0688 H        1 UNL1     0.0683
     35 H         -3.189755   -2.943905   2.163845 H        1 UNL1     0.1085
     36 H         -4.813607   -2.966392   3.448508 H        1 UNL1     0.0691
     37 H         -2.777968   0.694553   4.48959 H        1 UNL1     0.0691
     38 H         -3.323925   -0.994579   9.030667 H        1 UNL1     0.0385
     39 H         -4.886382   -0.586057   9.765771 H        1 UNL1     0.0385
     40 H         -3.66416   1.412259   8.826487 H        1 UNL1     0.0789
     41 H         -5.353622   1.936663   5.93548 H        1 UNL1     0.0623
     42 H         -7.491393   3.137818   5.713344 H        1 UNL1     0.0654
     43 H         -8.379517   2.344299   9.840201 H        1 UNL1     0.0654
     44 H         -6.293291   1.121309   10.080848 H        1 UNL1     0.0623
     45 H         -8.987428   4.43995   7.336933 H        1 UNL1     0.2921
     46 H         -5.375532   -3.909512   6.486705 H        1 UNL1     0.2922
     47 H         0.517034   0.365695   2.263866 H        1 UNL1     0.2126
     48 H         1.202112   -1.887868   -0.284288 H        1 UNL1     0.2101
     49 H         -2.022802   0.930986   -0.901583 H        1 UNL1     0.2100
     50 H         -2.67597   -3.341762   -1.146905 H        1 UNL1     0.2102
@<TRIPOS>BOND
     1     1     2    1
     2     1     6    1
     3     2     3    1
     4     3     4    1
     5     3    29    1
     6     3    33    1
     7     4     5    1
     8     5     6    1
     9     5     7    1
    10     5    35    1
    11     7     8    1
    12     8     9   ar
    13     8    13   ar
    14     9    10   ar
    15     9    36    1
    16    10    11   ar
    17    10    26    1
    18    11    12   ar
    19    11    14    1
    20    12    13   ar
    21    12    17    1
    22    13    37    1
    23    14    15    1
    24    14    25    2
    25    15    16    1
    26    15    38    1
    27    15    39    1
    28    16    17    1
    29    16    18    1
    30    16    40    1
    31    18    19   ar
    32    18    23   ar
    33    19    20   ar
    34    19    41    1
    35    20    21   ar
    36    20    42    1
    37    21    22   ar
    38    21    24    1
    39    22    23   ar
    40    22    43    1
    41    23    44    1
    42    24    45    1
    43    26    46    1
    44    27    47    1
    45    28    48    1
    46    29    49    1
    47    30    50    1
    48     1    31    1
    49     1    27    1
    50     2    32    1
    51     2    28    1
    52     4    34    1
    53     4    30    1
