@<TRIPOS>MOLECULE
*****
 50 53 0 0 0
SMALL
GASTEIGER

@<TRIPOS>ATOM
     1 C         -0.330679   -1.356244   1.679898 C.3        1 UNL1     0.1889
     2 C         -0.466187   -0.9765   0.180774 C.3        1 UNL1     0.1342
     3 C         -1.909307   -0.947961   -0.345585 C.3        1 UNL1     0.1174
     4 C         -2.79766   -2.014437   0.299842 C.3        1 UNL1     0.1456
     5 C         -2.639343   -2.06719   1.83037 C.3        1 UNL1     0.2326
     6 O         -1.273948   -2.297681   2.170136 O.3        1 UNL1     -0.3076
     7 O         -3.205926   -0.929024   2.504819 O.3        1 UNL1     -0.4605
     8 C         -3.721455   -1.16662   3.766289 C.ar        1 UNL1     0.1310
     9 C         -4.548532   -2.239847   4.114751 C.ar        1 UNL1     0.0226
     10 C         -5.006789   -2.40395   5.427372 C.ar        1 UNL1     0.1343
     11 C         -4.629292   -1.511157   6.429498 C.ar        1 UNL1     0.1007
     12 C         -3.837193   -0.412598   6.085211 C.ar        1 UNL1     0.1389
     13 C         -3.378713   -0.246348   4.764762 C.ar        1 UNL1     0.0229
     14 C         -5.015626   -1.683618   7.84906 C.2        1 UNL1     0.1740
     15 C         -4.34115   -0.761771   8.82211 C.3        1 UNL1     0.0520
     16 C         -4.25755   0.623096   8.195125 C.3        1 UNL1     0.1322
     17 O         -3.495736   0.585381   6.968224 O.3        1 UNL1     -0.4828
     18 C         -5.610149   1.330242   8.080478 C.ar        1 UNL1     -0.0067
     19 C         -5.97281   1.9378   6.860821 C.ar        1 UNL1     -0.0516
     20 C         -7.18142   2.633281   6.736201 C.ar        1 UNL1     -0.0198
     21 C         -8.03071   2.734411   7.823541 C.ar        1 UNL1     0.1169
     22 C         -7.716762   2.118353   9.02801 C.ar        1 UNL1     -0.0198
     23 C         -6.516772   1.407153   9.14749 C.ar        1 UNL1     -0.0516
     24 O         -9.181348   3.45173   7.675593 O.3        1 UNL1     -0.5068
     25 O         -5.773547   -2.56705   8.240963 O.2        1 UNL1     -0.2917
     26 O         -5.811553   -3.471136   5.701335 O.3        1 UNL1     -0.5058
     27 O         -0.216232   -0.233351   2.539434 O.3        1 UNL1     -0.3648
     28 O         0.256288   -1.944878   -0.602155 O.3        1 UNL1     -0.3841
     29 O         -2.460166   0.366715   -0.244023 O.3        1 UNL1     -0.3863
     30 O         -2.458617   -3.307534   -0.246639 O.3        1 UNL1     -0.3829
     31 H         0.628065   -1.875582   1.785624 H        1 UNL1     0.0937
     32 H         0.0   0.0   0.0 H        1 UNL1     0.0671
     33 H         -1.878211   -1.168949   -1.42165 H        1 UNL1     0.0649
     34 H         -3.848059   -1.826756   0.051165 H        1 UNL1     0.0683
     35 H         -3.196932   -2.965658   2.123166 H        1 UNL1     0.1085
     36 H         -4.83177   -2.998947   3.393874 H        1 UNL1     0.0691
     37 H         -2.764147   0.617941   4.522259 H        1 UNL1     0.0691
     38 H         -3.342978   -1.165215   9.02314 H        1 UNL1     0.0385
     39 H         -4.903999   -0.757565   9.761771 H        1 UNL1     0.0385
     40 H         -3.658892   1.248772   8.870891 H        1 UNL1     0.0789
     41 H         -5.319227   1.880519   5.995259 H        1 UNL1     0.0623
     42 H         -7.444298   3.107591   5.793897 H        1 UNL1     0.0654
     43 H         -8.38161   2.178516   9.881396 H        1 UNL1     0.0654
     44 H         -6.308455   0.929433   10.099978 H        1 UNL1     0.0623
     45 H         -8.94541   4.37269   7.478407 H        1 UNL1     0.2921
     46 H         -5.415177   -4.001609   6.410486 H        1 UNL1     0.2922
     47 H         0.515245   0.332481   2.255472 H        1 UNL1     0.2126
     48 H         1.197101   -1.858778   -0.35479 H        1 UNL1     0.2101
     49 H         -2.027289   0.956098   -0.882019 H        1 UNL1     0.2100
     50 H         -2.701403   -3.30683   -1.195726 H        1 UNL1     0.2102
@<TRIPOS>BOND
     1     1     2    1
     2     1     6    1
     3     2     3    1
     4     3     4    1
     5     3    29    1
     6     3    33    1
     7     4     5    1
     8     5     6    1
     9     5     7    1
    10     5    35    1
    11     7     8    1
    12     8     9   ar
    13     8    13   ar
    14     9    10   ar
    15     9    36    1
    16    10    11   ar
    17    10    26    1
    18    11    12   ar
    19    11    14    1
    20    12    13   ar
    21    12    17    1
    22    13    37    1
    23    14    15    1
    24    14    25    2
    25    15    16    1
    26    15    38    1
    27    15    39    1
    28    16    17    1
    29    16    18    1
    30    16    40    1
    31    18    19   ar
    32    18    23   ar
    33    19    20   ar
    34    19    41    1
    35    20    21   ar
    36    20    42    1
    37    21    22   ar
    38    21    24    1
    39    22    23   ar
    40    22    43    1
    41    23    44    1
    42    24    45    1
    43    26    46    1
    44    27    47    1
    45    28    48    1
    46    29    49    1
    47    30    50    1
    48     1    31    1
    49     1    27    1
    50     2    32    1
    51     2    28    1
    52     4    34    1
    53     4    30    1
