@<TRIPOS>MOLECULE
*****
 50 53 0 0 0
SMALL
GASTEIGER

@<TRIPOS>ATOM
     1 C         -0.16456   0.913945   1.976975 C.3        1 UNL1     0.1889
     2 C         0.352725   -0.194021   1.02054 C.3        1 UNL1     0.1342
     3 C         -0.04031   -1.623636   1.423269 C.3        1 UNL1     0.1174
     4 C         -0.081996   -1.822604   2.940435 C.3        1 UNL1     0.1456
     5 C         -0.830709   -0.68853   3.664084 C.3        1 UNL1     0.2326
     6 O         -0.230469   0.566597   3.352257 O.3        1 UNL1     -0.3076
     7 O         -2.252443   -0.706773   3.441241 O.3        1 UNL1     -0.4605
     8 C         -3.035077   -0.237502   4.480855 C.ar        1 UNL1     0.1310
     9 C         -2.877887   -0.574533   5.829559 C.ar        1 UNL1     0.0226
     10 C         -3.712983   -0.031614   6.813304 C.ar        1 UNL1     0.1343
     11 C         -4.71129   0.880821   6.474649 C.ar        1 UNL1     0.1007
     12 C         -4.904446   1.193587   5.126446 C.ar        1 UNL1     0.1389
     13 C         -4.066336   0.645517   4.137193 C.ar        1 UNL1     0.0229
     14 C         -5.567114   1.548955   7.482277 C.2        1 UNL1     0.1740
     15 C         -6.431139   2.661456   6.965217 C.3        1 UNL1     0.0520
     16 C         -6.991572   2.246938   5.611685 C.3        1 UNL1     0.1322
     17 O         -5.924984   1.995293   4.670337 O.3        1 UNL1     -0.4828
     18 C         -8.040869   1.135623   5.693406 C.ar        1 UNL1     -0.0067
     19 C         -7.933453   0.017684   4.84083 C.ar        1 UNL1     -0.0516
     20 C         -8.901665   -0.993394   4.856626 C.ar        1 UNL1     -0.0198
     21 C         -9.983467   -0.89483   5.713256 C.ar        1 UNL1     0.1169
     22 C         -10.099375   0.177339   6.588389 C.ar        1 UNL1     -0.0198
     23 C         -9.121636   1.179374   6.585832 C.ar        1 UNL1     -0.0516
     24 O         -10.926114   -1.87985   5.673832 O.3        1 UNL1     -0.5068
     25 O         -5.532357   1.28439   8.681144 O.2        1 UNL1     -0.2917
     26 O         -3.507868   -0.402069   8.11033 O.3        1 UNL1     -0.5058
     27 O         -1.364074   1.528491   1.533932 O.3        1 UNL1     -0.3648
     28 O         1.791008   -0.13707   0.992134 O.3        1 UNL1     -0.3841
     29 O         -1.254628   -2.015896   0.780076 O.3        1 UNL1     -0.3863
     30 O         1.268871   -1.884313   3.447425 O.3        1 UNL1     -0.3829
     31 H         0.576726   1.720132   1.951733 H        1 UNL1     0.0937
     32 H         0.0   0.0   0.0 H        1 UNL1     0.0671
     33 H         0.72916   -2.305115   1.034396 H        1 UNL1     0.0649
     34 H         -0.557997   -2.780132   3.179107 H        1 UNL1     0.0683
     35 H         -0.636696   -0.879566   4.726978 H        1 UNL1     0.1085
     36 H         -2.08499   -1.234687   6.163673 H        1 UNL1     0.0691
     37 H         -4.238182   0.904123   3.09456 H        1 UNL1     0.0691
     38 H         -5.80322   3.554366   6.876026 H        1 UNL1     0.0385
     39 H         -7.221511   2.870534   7.694173 H        1 UNL1     0.0385
     40 H         -7.521154   3.116948   5.200412 H        1 UNL1     0.0789
     41 H         -7.098596   -0.078537   4.152784 H        1 UNL1     0.0623
     42 H         -8.813887   -1.844566   4.185946 H        1 UNL1     0.0654
     43 H         -10.934584   0.256911   7.273958 H        1 UNL1     0.0654
     44 H         -9.238448   1.997259   7.290293 H        1 UNL1     0.0623
     45 H         -11.30663   -1.904643   4.780911 H        1 UNL1     0.2921
     46 H         -3.354356   0.388104   8.652062 H        1 UNL1     0.2922
     47 H         -1.247743   1.885856   0.64252 H        1 UNL1     0.2126
     48 H         2.029229   0.744623   0.646302 H        1 UNL1     0.2101
     49 H         -1.102713   -2.127463   -0.171905 H        1 UNL1     0.2100
     50 H         1.689953   -2.691662   3.086052 H        1 UNL1     0.2102
@<TRIPOS>BOND
     1     1     2    1
     2     1     6    1
     3     2     3    1
     4     3     4    1
     5     3    29    1
     6     3    33    1
     7     4     5    1
     8     5     6    1
     9     5     7    1
    10     5    35    1
    11     7     8    1
    12     8     9   ar
    13     8    13   ar
    14     9    10   ar
    15     9    36    1
    16    10    11   ar
    17    10    26    1
    18    11    12   ar
    19    11    14    1
    20    12    13   ar
    21    12    17    1
    22    13    37    1
    23    14    15    1
    24    14    25    2
    25    15    16    1
    26    15    38    1
    27    15    39    1
    28    16    17    1
    29    16    18    1
    30    16    40    1
    31    18    19   ar
    32    18    23   ar
    33    19    20   ar
    34    19    41    1
    35    20    21   ar
    36    20    42    1
    37    21    22   ar
    38    21    24    1
    39    22    23   ar
    40    22    43    1
    41    23    44    1
    42    24    45    1
    43    26    46    1
    44    27    47    1
    45    28    48    1
    46    29    49    1
    47    30    50    1
    48     1    31    1
    49     1    27    1
    50     2    32    1
    51     2    28    1
    52     4    34    1
    53     4    30    1
