@<TRIPOS>MOLECULE
*****
 50 53 0 0 0
SMALL
GASTEIGER

@<TRIPOS>ATOM
     1 C         -1.568538   -1.087818   -1.061671 C.3        1 UNL1     0.1889
     2 C         -0.235932   -0.292112   -1.03081 C.3        1 UNL1     0.1342
     3 C         -0.214878   0.958295   -1.923281 C.3        1 UNL1     0.1174
     4 C         -1.018017   0.779738   -3.214096 C.3        1 UNL1     0.1456
     5 C         -2.401693   0.151753   -2.966227 C.3        1 UNL1     0.2326
     6 O         -2.254688   -1.102748   -2.3048 O.3        1 UNL1     -0.3076
     7 O         -3.322335   1.036854   -2.302648 O.3        1 UNL1     -0.4605
     8 C         -4.661179   0.849956   -2.596069 C.ar        1 UNL1     0.1310
     9 C         -5.56745   0.122069   -1.81751 C.ar        1 UNL1     0.0226
     10 C         -6.911411   0.004384   -2.191434 C.ar        1 UNL1     0.1343
     11 C         -7.387391   0.632261   -3.341675 C.ar        1 UNL1     0.1007
     12 C         -6.483206   1.327664   -4.148923 C.ar        1 UNL1     0.1389
     13 C         -5.131355   1.443636   -3.774117 C.ar        1 UNL1     0.0229
     14 C         -8.814198   0.610833   -3.739062 C.2        1 UNL1     0.1740
     15 C         -9.185806   1.519349   -4.873986 C.3        1 UNL1     0.0520
     16 C         -8.080069   1.461946   -5.918978 C.3        1 UNL1     0.1322
     17 O         -6.820643   1.892268   -5.357072 O.3        1 UNL1     -0.4828
     18 C         -8.015999   0.133159   -6.675909 C.ar        1 UNL1     -0.0067
     19 C         -7.643511   0.128079   -8.03585 C.ar        1 UNL1     -0.0516
     20 C         -7.620696   -1.063799   -8.769927 C.ar        1 UNL1     -0.0198
     21 C         -7.974509   -2.253449   -8.158881 C.ar        1 UNL1     0.1169
     22 C         -8.313536   -2.285431   -6.81245 C.ar        1 UNL1     -0.0198
     23 C         -8.318605   -1.096391   -6.073388 C.ar        1 UNL1     -0.0516
     24 O         -7.977059   -3.388425   -8.915335 O.3        1 UNL1     -0.5068
     25 O         -9.671962   -0.036717   -3.144582 O.2        1 UNL1     -0.2917
     26 O         -7.743479   -0.720444   -1.389018 O.3        1 UNL1     -0.5058
     27 O         -2.439386   -0.774046   0.013485 O.3        1 UNL1     -0.3648
     28 O         0.822688   -1.1577   -1.481128 O.3        1 UNL1     -0.3841
     29 O         -0.606983   2.116153   -1.18318 O.3        1 UNL1     -0.3863
     30 O         -0.278425   -0.069091   -4.11863 O.3        1 UNL1     -0.3829
     31 H         -1.308636   -2.13967   -0.900005 H        1 UNL1     0.0937
     32 H         0.0   0.0   0.0 H        1 UNL1     0.0671
     33 H         0.827354   1.140899   -2.220145 H        1 UNL1     0.0649
     34 H         -1.143982   1.74701   -3.713014 H        1 UNL1     0.0683
     35 H         -2.779817   -0.061363   -3.973938 H        1 UNL1     0.1085
     36 H         -5.271932   -0.34246   -0.883164 H        1 UNL1     0.0691
     37 H         -4.447396   1.989492   -4.420442 H        1 UNL1     0.0691
     38 H         -9.292765   2.530628   -4.467291 H        1 UNL1     0.0385
     39 H         -10.155047   1.209398   -5.279302 H        1 UNL1     0.0385
     40 H         -8.314135   2.218799   -6.679838 H        1 UNL1     0.0789
     41 H         -7.370296   1.050021   -8.540852 H        1 UNL1     0.0623
     42 H         -7.343187   -1.052955   -9.821061 H        1 UNL1     0.0654
     43 H         -8.577749   -3.213743   -6.32017 H        1 UNL1     0.0654
     44 H         -8.578291   -1.159895   -5.021069 H        1 UNL1     0.0623
     45 H         -8.866366   -3.507754   -9.286293 H        1 UNL1     0.2921
     46 H         -7.981509   -1.54903   -1.834215 H        1 UNL1     0.2922
     47 H         -2.129679   0.017706   0.47508 H        1 UNL1     0.2126
     48 H         1.38476   -1.339991   -0.703583 H        1 UNL1     0.2101
     49 H         -1.570294   2.225259   -1.227026 H        1 UNL1     0.2100
     50 H         -0.636973   0.066261   -5.020204 H        1 UNL1     0.2102
@<TRIPOS>BOND
     1     1     2    1
     2     1     6    1
     3     2     3    1
     4     3     4    1
     5     3    29    1
     6     3    33    1
     7     4     5    1
     8     5     6    1
     9     5     7    1
    10     5    35    1
    11     7     8    1
    12     8     9   ar
    13     8    13   ar
    14     9    10   ar
    15     9    36    1
    16    10    11   ar
    17    10    26    1
    18    11    12   ar
    19    11    14    1
    20    12    13   ar
    21    12    17    1
    22    13    37    1
    23    14    15    1
    24    14    25    2
    25    15    16    1
    26    15    38    1
    27    15    39    1
    28    16    17    1
    29    16    18    1
    30    16    40    1
    31    18    19   ar
    32    18    23   ar
    33    19    20   ar
    34    19    41    1
    35    20    21   ar
    36    20    42    1
    37    21    22   ar
    38    21    24    1
    39    22    23   ar
    40    22    43    1
    41    23    44    1
    42    24    45    1
    43    26    46    1
    44    27    47    1
    45    28    48    1
    46    29    49    1
    47    30    50    1
    48     1    31    1
    49     1    27    1
    50     2    32    1
    51     2    28    1
    52     4    34    1
    53     4    30    1
