@<TRIPOS>MOLECULE
*****
 50 53 0 0 0
SMALL
GASTEIGER

@<TRIPOS>ATOM
     1 C         -0.390873   -1.380864   1.646583 C.3        1 UNL1     0.1889
     2 C         -0.492366   -0.968291   0.153458 C.3        1 UNL1     0.1342
     3 C         -1.92546   -0.894306   -0.395388 C.3        1 UNL1     0.1174
     4 C         -2.849675   -1.951497   0.213948 C.3        1 UNL1     0.1456
     5 C         -2.718075   -2.038417   1.745447 C.3        1 UNL1     0.2326
     6 O         -1.364414   -2.308669   2.102427 O.3        1 UNL1     -0.3076
     7 O         -3.268355   -0.900434   2.433565 O.3        1 UNL1     -0.4605
     8 C         -3.810278   -1.150416   3.681506 C.ar        1 UNL1     0.1310
     9 C         -4.665718   -2.211948   3.995627 C.ar        1 UNL1     0.0226
     10 C         -5.149708   -2.390653   5.297057 C.ar        1 UNL1     0.1343
     11 C         -4.77058   -1.525045   6.322155 C.ar        1 UNL1     0.1007
     12 C         -3.949641   -0.437519   6.012107 C.ar        1 UNL1     0.1389
     13 C         -3.465248   -0.256526   4.702895 C.ar        1 UNL1     0.0229
     14 C         -5.184679   -1.715648   7.731533 C.2        1 UNL1     0.1740
     15 C         -4.507569   -0.826835   8.733073 C.3        1 UNL1     0.0520
     16 C         -4.383977   0.567384   8.134045 C.3        1 UNL1     0.1322
     17 O         -3.602278   0.536231   6.919531 O.3        1 UNL1     -0.4828
     18 C         -5.719151   1.305441   8.010326 C.ar        1 UNL1     -0.0067
     19 C         -5.970315   2.424722   8.83029 C.ar        1 UNL1     -0.0516
     20 C         -7.198989   3.093595   8.776139 C.ar        1 UNL1     -0.0198
     21 C         -8.185098   2.649519   7.913461 C.ar        1 UNL1     0.1169
     22 C         -7.955506   1.570681   7.069521 C.ar        1 UNL1     -0.0198
     23 C         -6.720266   0.912972   7.110254 C.ar        1 UNL1     -0.0516
     24 O         -9.382467   3.302744   7.915497 O.3        1 UNL1     -0.5068
     25 O         -5.967713   -2.589759   8.093848 O.2        1 UNL1     -0.2917
     26 O         -5.981442   -3.445234   5.53719 O.3        1 UNL1     -0.5058
     27 O         -0.263848   -0.278345   2.530383 O.3        1 UNL1     -0.3648
     28 O         0.219605   -1.938202   -0.63716 O.3        1 UNL1     -0.3841
     29 O         -2.446295   0.431079   -0.276144 O.3        1 UNL1     -0.3863
     30 O         -2.53267   -3.24135   -0.353041 O.3        1 UNL1     -0.3829
     31 H         0.553276   -1.925312   1.75721 H        1 UNL1     0.0937
     32 H         0.0   0.0   0.0 H        1 UNL1     0.0671
     33 H         -1.881819   -1.094602   -1.475063 H        1 UNL1     0.0649
     34 H         -3.89101   -1.733486   -0.047766 H        1 UNL1     0.0683
     35 H         -3.301795   -2.928717   2.010995 H        1 UNL1     0.1085
     36 H         -4.952598   -2.951194   3.255805 H        1 UNL1     0.0691
     37 H         -2.828474   0.598738   4.487176 H        1 UNL1     0.0691
     38 H         -3.52174   -1.255313   8.943014 H        1 UNL1     0.0385
     39 H         -5.086178   -0.828087   9.663121 H        1 UNL1     0.0385
     40 H         -3.783846   1.167326   8.831493 H        1 UNL1     0.0789
     41 H         -5.215882   2.787318   9.522392 H        1 UNL1     0.0623
     42 H         -7.384881   3.94816   9.42203 H        1 UNL1     0.0654
     43 H         -8.715363   1.2239   6.379398 H        1 UNL1     0.0654
     44 H         -6.571544   0.08044   6.42936 H        1 UNL1     0.0623
     45 H         -9.399931   3.913471   7.160895 H        1 UNL1     0.2921
     46 H         -5.777883   -3.826539   6.405857 H        1 UNL1     0.2922
     47 H         -1.08794   0.227746   2.554952 H        1 UNL1     0.2126
     48 H         -0.329818   -2.114396   -1.425083 H        1 UNL1     0.2101
     49 H         -3.002234   0.497114   0.516551 H        1 UNL1     0.2100
     50 H         -2.005846   -3.739162   0.306013 H        1 UNL1     0.2102
@<TRIPOS>BOND
     1     1     2    1
     2     1     6    1
     3     2     3    1
     4     3     4    1
     5     3    29    1
     6     3    33    1
     7     4     5    1
     8     5     6    1
     9     5     7    1
    10     5    35    1
    11     7     8    1
    12     8     9   ar
    13     8    13   ar
    14     9    10   ar
    15     9    36    1
    16    10    11   ar
    17    10    26    1
    18    11    12   ar
    19    11    14    1
    20    12    13   ar
    21    12    17    1
    22    13    37    1
    23    14    15    1
    24    14    25    2
    25    15    16    1
    26    15    38    1
    27    15    39    1
    28    16    17    1
    29    16    18    1
    30    16    40    1
    31    18    19   ar
    32    18    23   ar
    33    19    20   ar
    34    19    41    1
    35    20    21   ar
    36    20    42    1
    37    21    22   ar
    38    21    24    1
    39    22    23   ar
    40    22    43    1
    41    23    44    1
    42    24    45    1
    43    26    46    1
    44    27    47    1
    45    28    48    1
    46    29    49    1
    47    30    50    1
    48     1    31    1
    49     1    27    1
    50     2    32    1
    51     2    28    1
    52     4    34    1
    53     4    30    1
