@<TRIPOS>MOLECULE
*****
 50 53 0 0 0
SMALL
GASTEIGER

@<TRIPOS>ATOM
     1 C         0.324954   -1.211632   1.78806 C.3        1 UNL1     0.1889
     2 C         0.664343   -0.809236   0.327638 C.3        1 UNL1     0.1342
     3 C         0.591287   -1.959741   -0.687974 C.3        1 UNL1     0.1174
     4 C         1.032511   -3.301385   -0.097694 C.3        1 UNL1     0.1456
     5 C         0.401073   -3.576648   1.279216 C.3        1 UNL1     0.2326
     6 O         0.719066   -2.518291   2.180121 O.3        1 UNL1     -0.3076
     7 O         -1.008096   -3.862423   1.216798 O.3        1 UNL1     -0.4605
     8 C         -1.695019   -3.789926   2.4153 C.ar        1 UNL1     0.1310
     9 C         -2.591522   -4.750953   2.894893 C.ar        1 UNL1     0.0226
     10 C         -3.226507   -4.594469   4.132717 C.ar        1 UNL1     0.1343
     11 C         -2.961961   -3.483558   4.932551 C.ar        1 UNL1     0.1007
     12 C         -2.099948   -2.497122   4.446072 C.ar        1 UNL1     0.1389
     13 C         -1.463629   -2.653419   3.200239 C.ar        1 UNL1     0.0229
     14 C         -3.540316   -3.308906   6.285013 C.2        1 UNL1     0.1740
     15 C         -2.976874   -2.175337   7.090683 C.3        1 UNL1     0.0520
     16 C         -2.77053   -0.983236   6.166412 C.3        1 UNL1     0.1322
     17 O         -1.852109   -1.313205   5.101193 O.3        1 UNL1     -0.4828
     18 C         -4.074848   -0.33185   5.700393 C.ar        1 UNL1     -0.0067
     19 C         -4.028172   0.902805   5.020937 C.ar        1 UNL1     -0.0516
     20 C         -5.204819   1.548659   4.623018 C.ar        1 UNL1     -0.0198
     21 C         -6.431836   0.975062   4.90452 C.ar        1 UNL1     0.1169
     22 C         -6.509203   -0.25614   5.542481 C.ar        1 UNL1     -0.0198
     23 C         -5.332154   -0.911092   5.924124 C.ar        1 UNL1     -0.0516
     24 O         -7.557209   1.651484   4.535212 O.3        1 UNL1     -0.5068
     25 O         -4.368775   -4.074917   6.770161 O.2        1 UNL1     -0.2917
     26 O         -4.090724   -5.567571   4.542336 O.3        1 UNL1     -0.5058
     27 O         -1.018852   -0.938591   2.151957 O.3        1 UNL1     -0.3648
     28 O         2.008849   -0.295366   0.296837 O.3        1 UNL1     -0.3841
     29 O         -0.701596   -2.02001   -1.293741 O.3        1 UNL1     -0.3863
     30 O         2.469986   -3.308002   0.041271 O.3        1 UNL1     -0.3829
     31 H         0.91822   -0.559359   2.438179 H        1 UNL1     0.0937
     32 H         0.0   0.0   -0.0 H        1 UNL1     0.0671
     33 H         1.286734   -1.728763   -1.506951 H        1 UNL1     0.0649
     34 H         0.773051   -4.115253   -0.78377 H        1 UNL1     0.0683
     35 H         0.927686   -4.469895   1.637917 H        1 UNL1     0.1085
     36 H         -2.796712   -5.663531   2.346059 H        1 UNL1     0.0691
     37 H         -0.797788   -1.870514   2.843574 H        1 UNL1     0.0691
     38 H         -2.026622   -2.512954   7.517957 H        1 UNL1     0.0385
     39 H         -3.660561   -1.946458   7.915283 H        1 UNL1     0.0385
     40 H         -2.25063   -0.209426   6.74731 H        1 UNL1     0.0789
     41 H         -3.077776   1.378114   4.796263 H        1 UNL1     0.0623
     42 H         -5.156047   2.50613   4.110299 H        1 UNL1     0.0654
     43 H         -7.464408   -0.721504   5.754448 H        1 UNL1     0.0654
     44 H         -5.429583   -1.876578   6.411144 H        1 UNL1     0.0623
     45 H         -7.351211   2.183801   3.74977 H        1 UNL1     0.2921
     46 H         -5.002718   -5.248349   4.454157 H        1 UNL1     0.2922
     47 H         -1.421828   -0.332655   1.514532 H        1 UNL1     0.2126
     48 H         2.089107   0.323275   1.048218 H        1 UNL1     0.2101
     49 H         -0.623584   -1.887493   -2.251941 H        1 UNL1     0.2100
     50 H         2.85162   -3.659398   -0.789745 H        1 UNL1     0.2102
@<TRIPOS>BOND
     1     1     2    1
     2     1     6    1
     3     2     3    1
     4     3     4    1
     5     3    29    1
     6     3    33    1
     7     4     5    1
     8     5     6    1
     9     5     7    1
    10     5    35    1
    11     7     8    1
    12     8     9   ar
    13     8    13   ar
    14     9    10   ar
    15     9    36    1
    16    10    11   ar
    17    10    26    1
    18    11    12   ar
    19    11    14    1
    20    12    13   ar
    21    12    17    1
    22    13    37    1
    23    14    15    1
    24    14    25    2
    25    15    16    1
    26    15    38    1
    27    15    39    1
    28    16    17    1
    29    16    18    1
    30    16    40    1
    31    18    19   ar
    32    18    23   ar
    33    19    20   ar
    34    19    41    1
    35    20    21   ar
    36    20    42    1
    37    21    22   ar
    38    21    24    1
    39    22    23   ar
    40    22    43    1
    41    23    44    1
    42    24    45    1
    43    26    46    1
    44    27    47    1
    45    28    48    1
    46    29    49    1
    47    30    50    1
    48     1    31    1
    49     1    27    1
    50     2    32    1
    51     2    28    1
    52     4    34    1
    53     4    30    1
