@<TRIPOS>MOLECULE
*****
 50 53 0 0 0
SMALL
GASTEIGER

@<TRIPOS>ATOM
     1 C         -2.12952   0.090625   -0.477218 C.3        1 UNL1     0.1889
     2 C         -0.935824   0.28636   0.495776 C.3        1 UNL1     0.1342
     3 C         -1.056177   -0.481579   1.821012 C.3        1 UNL1     0.1174
     4 C         -2.499065   -0.576093   2.323264 C.3        1 UNL1     0.1456
     5 C         -3.484383   -0.987346   1.214037 C.3        1 UNL1     0.2326
     6 O         -3.404548   -0.06763   0.127474 O.3        1 UNL1     -0.3076
     7 O         -3.346226   -2.360175   0.80468 O.3        1 UNL1     -0.4605
     8 C         -4.521974   -3.024962   0.506009 C.ar        1 UNL1     0.1310
     9 C         -5.569793   -3.260751   1.402546 C.ar        1 UNL1     0.0226
     10 C         -6.730932   -3.930509   0.998711 C.ar        1 UNL1     0.1343
     11 C         -6.882533   -4.360153   -0.318962 C.ar        1 UNL1     0.1007
     12 C         -5.826056   -4.166806   -1.212975 C.ar        1 UNL1     0.1389
     13 C         -4.657554   -3.495686   -0.805996 C.ar        1 UNL1     0.0229
     14 C         -8.121829   -4.997923   -0.820508 C.2        1 UNL1     0.1740
     15 C         -8.196755   -5.191664   -2.306577 C.3        1 UNL1     0.0520
     16 C         -6.828779   -5.63816   -2.803812 C.3        1 UNL1     0.1322
     17 O         -5.824364   -4.644301   -2.503038 O.3        1 UNL1     -0.4828
     18 C         -6.456369   -7.06291   -2.386534 C.ar        1 UNL1     -0.0067
     19 C         -7.39739   -7.848931   -1.690214 C.ar        1 UNL1     -0.0516
     20 C         -7.072705   -9.138498   -1.252538 C.ar        1 UNL1     -0.0198
     21 C         -5.810773   -9.649501   -1.497955 C.ar        1 UNL1     0.1169
     22 C         -4.873708   -8.912479   -2.210378 C.ar        1 UNL1     -0.0198
     23 C         -5.204302   -7.629999   -2.664261 C.ar        1 UNL1     -0.0516
     24 O         -5.518201   -10.89437   -1.023502 O.3        1 UNL1     -0.5068
     25 O         -9.073851   -5.285178   -0.099659 O.2        1 UNL1     -0.2917
     26 O         -7.715376   -4.129654   1.922181 O.3        1 UNL1     -0.5058
     27 O         -1.894309   -0.895864   -1.469338 O.3        1 UNL1     -0.3648
     28 O         -0.835659   1.685689   0.819116 O.3        1 UNL1     -0.3841
     29 O         -0.41794   -1.75677   1.727869 O.3        1 UNL1     -0.3863
     30 O         -2.902313   0.706726   2.850004 O.3        1 UNL1     -0.3829
     31 H         -2.228362   1.023621   -1.042751 H        1 UNL1     0.0937
     32 H         0.0   0.0   0.0 H        1 UNL1     0.0671
     33 H         -0.490277   0.072996   2.582539 H        1 UNL1     0.0649
     34 H         -2.561792   -1.295135   3.147548 H        1 UNL1     0.0683
     35 H         -4.471479   -0.852878   1.673861 H        1 UNL1     0.1085
     36 H         -5.536384   -2.902522   2.425618 H        1 UNL1     0.0691
     37 H         -3.849056   -3.358775   -1.520894 H        1 UNL1     0.0691
     38 H         -8.485191   -4.233289   -2.751379 H        1 UNL1     0.0385
     39 H         -8.97919   -5.923646   -2.534121 H        1 UNL1     0.0385
     40 H         -6.874234   -5.659231   -3.901086 H        1 UNL1     0.0789
     41 H         -8.391612   -7.467135   -1.47713 H        1 UNL1     0.0623
     42 H         -7.803057   -9.730195   -0.706193 H        1 UNL1     0.0654
     43 H         -3.887621   -9.30884   -2.421187 H        1 UNL1     0.0654
     44 H         -4.451391   -7.086456   -3.226872 H        1 UNL1     0.0623
     45 H         -6.28418   -11.219836   -0.523437 H        1 UNL1     0.2921
     46 H         -8.487958   -4.527641   1.490748 H        1 UNL1     0.2922
     47 H         -2.06184   -1.778409   -1.110302 H        1 UNL1     0.2126
     48 H         -0.653945   1.739064   1.777168 H        1 UNL1     0.2101
     49 H         -0.283938   -1.991446   0.795793 H        1 UNL1     0.2100
     50 H         -3.469464   1.142706   2.180696 H        1 UNL1     0.2102
@<TRIPOS>BOND
     1     1     2    1
     2     1     6    1
     3     2     3    1
     4     3     4    1
     5     3    29    1
     6     3    33    1
     7     4     5    1
     8     5     6    1
     9     5     7    1
    10     5    35    1
    11     7     8    1
    12     8     9   ar
    13     8    13   ar
    14     9    10   ar
    15     9    36    1
    16    10    11   ar
    17    10    26    1
    18    11    12   ar
    19    11    14    1
    20    12    13   ar
    21    12    17    1
    22    13    37    1
    23    14    15    1
    24    14    25    2
    25    15    16    1
    26    15    38    1
    27    15    39    1
    28    16    17    1
    29    16    18    1
    30    16    40    1
    31    18    19   ar
    32    18    23   ar
    33    19    20   ar
    34    19    41    1
    35    20    21   ar
    36    20    42    1
    37    21    22   ar
    38    21    24    1
    39    22    23   ar
    40    22    43    1
    41    23    44    1
    42    24    45    1
    43    26    46    1
    44    27    47    1
    45    28    48    1
    46    29    49    1
    47    30    50    1
    48     1    31    1
    49     1    27    1
    50     2    32    1
    51     2    28    1
    52     4    34    1
    53     4    30    1
