@<TRIPOS>MOLECULE
*****
 50 53 0 0 0
SMALL
GASTEIGER

@<TRIPOS>ATOM
     1 C         -1.883151   -0.530248   0.971279 C.3        1 UNL1     0.1889
     2 C         -0.434788   0.027351   1.006863 C.3        1 UNL1     0.1342
     3 C         0.507789   -0.697789   1.979584 C.3        1 UNL1     0.1174
     4 C         -0.202853   -1.178465   3.247281 C.3        1 UNL1     0.1456
     5 C         -1.534849   -1.88853   2.944037 C.3        1 UNL1     0.2326
     6 O         -2.390418   -1.021186   2.203373 O.3        1 UNL1     -0.3076
     7 O         -1.369354   -3.179686   2.330157 O.3        1 UNL1     -0.4605
     8 C         -2.27687   -4.152223   2.709781 C.ar        1 UNL1     0.1310
     9 C         -3.145123   -4.067685   3.803531 C.ar        1 UNL1     0.0226
     10 C         -4.042377   -5.101496   4.096912 C.ar        1 UNL1     0.1343
     11 C         -4.109771   -6.23566   3.288846 C.ar        1 UNL1     0.1007
     12 C         -3.219369   -6.34974   2.217887 C.ar        1 UNL1     0.1389
     13 C         -2.315456   -5.311284   1.924663 C.ar        1 UNL1     0.0229
     14 C         -5.096026   -7.319838   3.503354 C.2        1 UNL1     0.1740
     15 C         -5.176281   -8.349313   2.414644 C.3        1 UNL1     0.0520
     16 C         -3.763573   -8.657693   1.938079 C.3        1 UNL1     0.1322
     17 O         -3.12509   -7.468505   1.423064 O.3        1 UNL1     -0.4828
     18 C         -2.926582   -9.437237   2.955174 C.ar        1 UNL1     -0.0067
     19 C         -2.423885   -8.772945   4.092814 C.ar        1 UNL1     -0.0516
     20 C         -1.615699   -9.444327   5.01804 C.ar        1 UNL1     -0.0198
     21 C         -1.297667   -10.775071   4.813576 C.ar        1 UNL1     0.1169
     22 C         -1.805005   -11.46534   3.720427 C.ar        1 UNL1     -0.0198
     23 C         -2.628322   -10.799154   2.804784 C.ar        1 UNL1     -0.0516
     24 O         -0.477066   -11.385576   5.71596 O.3        1 UNL1     -0.5068
     25 O         -5.865655   -7.354209   4.459897 O.2        1 UNL1     -0.2917
     26 O         -4.861447   -4.957631   5.178583 O.3        1 UNL1     -0.5058
     27 O         -2.111465   -1.443438   -0.090203 O.3        1 UNL1     -0.3648
     28 O         -0.487453   1.408237   1.410704 O.3        1 UNL1     -0.3841
     29 O         1.217849   -1.743464   1.312868 O.3        1 UNL1     -0.3863
     30 O         -0.465568   -0.044415   4.102034 O.3        1 UNL1     -0.3829
     31 H         -2.539087   0.317138   0.743763 H        1 UNL1     0.0937
     32 H         0.0   0.0   0.0 H        1 UNL1     0.0671
     33 H         1.276724   0.019509   2.29887 H        1 UNL1     0.0649
     34 H         0.449688   -1.857508   3.807185 H        1 UNL1     0.0683
     35 H         -1.993992   -2.022497   3.931518 H        1 UNL1     0.1085
     36 H         -3.180414   -3.188071   4.436899 H        1 UNL1     0.0691
     37 H         -1.631948   -5.424995   1.085985 H        1 UNL1     0.0691
     38 H         -5.783133   -7.929061   1.605541 H        1 UNL1     0.0385
     39 H         -5.687109   -9.238861   2.798749 H        1 UNL1     0.0385
     40 H         -3.853329   -9.320404   1.066713 H        1 UNL1     0.0789
     41 H         -2.651601   -7.726049   4.271154 H        1 UNL1     0.0623
     42 H         -1.224411   -8.917901   5.885093 H        1 UNL1     0.0654
     43 H         -1.574555   -12.511592   3.558687 H        1 UNL1     0.0654
     44 H         -3.015702   -11.372158   1.967857 H        1 UNL1     0.0623
     45 H         0.385602   -11.53281   5.295433 H        1 UNL1     0.2921
     46 H         -4.958448   -5.812613   5.626924 H        1 UNL1     0.2922
     47 H         -1.881034   -1.036718   -0.937162 H        1 UNL1     0.2126
     48 H         -1.159156   1.467627   2.117118 H        1 UNL1     0.2101
     49 H         1.315411   -2.505922   1.905264 H        1 UNL1     0.2100
     50 H         -1.415475   -0.060655   4.341043 H        1 UNL1     0.2102
@<TRIPOS>BOND
     1     1     2    1
     2     1     6    1
     3     2     3    1
     4     3     4    1
     5     3    29    1
     6     3    33    1
     7     4     5    1
     8     5     6    1
     9     5     7    1
    10     5    35    1
    11     7     8    1
    12     8     9   ar
    13     8    13   ar
    14     9    10   ar
    15     9    36    1
    16    10    11   ar
    17    10    26    1
    18    11    12   ar
    19    11    14    1
    20    12    13   ar
    21    12    17    1
    22    13    37    1
    23    14    15    1
    24    14    25    2
    25    15    16    1
    26    15    38    1
    27    15    39    1
    28    16    17    1
    29    16    18    1
    30    16    40    1
    31    18    19   ar
    32    18    23   ar
    33    19    20   ar
    34    19    41    1
    35    20    21   ar
    36    20    42    1
    37    21    22   ar
    38    21    24    1
    39    22    23   ar
    40    22    43    1
    41    23    44    1
    42    24    45    1
    43    26    46    1
    44    27    47    1
    45    28    48    1
    46    29    49    1
    47    30    50    1
    48     1    31    1
    49     1    27    1
    50     2    32    1
    51     2    28    1
    52     4    34    1
    53     4    30    1
