@<TRIPOS>MOLECULE
*****
 50 53 0 0 0
SMALL
GASTEIGER

@<TRIPOS>ATOM
     1 C         -0.344741   -1.368818   1.666822 C.3        1 UNL1     0.1889
     2 C         -0.474977   -0.973999   0.171129 C.3        1 UNL1     0.1342
     3 C         -1.917111   -0.927887   -0.356684 C.3        1 UNL1     0.1174
     4 C         -2.815627   -1.992455   0.277731 C.3        1 UNL1     0.1456
     5 C         -2.659751   -2.060803   1.807893 C.3        1 UNL1     0.2326
     6 O         -1.296872   -2.306435   2.14715 O.3        1 UNL1     -0.3076
     7 O         -3.217186   -0.924008   2.492206 O.3        1 UNL1     -0.4605
     8 C         -3.736406   -1.16876   3.75079 C.ar        1 UNL1     0.1310
     9 C         -4.573325   -2.237862   4.088265 C.ar        1 UNL1     0.0226
     10 C         -5.034697   -2.410106   5.39875 C.ar        1 UNL1     0.1343
     11 C         -4.650665   -1.530006   6.409584 C.ar        1 UNL1     0.1007
     12 C         -3.848507   -0.435307   6.076478 C.ar        1 UNL1     0.1389
     13 C         -3.386883   -0.260845   4.758185 C.ar        1 UNL1     0.0229
     14 C         -5.040329   -1.712233   7.827015 C.2        1 UNL1     0.1740
     15 C         -4.359037   -0.805424   8.809404 C.3        1 UNL1     0.0520
     16 C         -4.262471   0.584415   8.195417 C.3        1 UNL1     0.1322
     17 O         -3.499437   0.551392   6.969139 O.3        1 UNL1     -0.4828
     18 C         -5.60866   1.30446   8.085714 C.ar        1 UNL1     -0.0067
     19 C         -5.964399   1.926479   6.871318 C.ar        1 UNL1     -0.0516
     20 C         -7.166693   2.633688   6.751709 C.ar        1 UNL1     -0.0198
     21 C         -8.016463   2.732184   7.838915 C.ar        1 UNL1     0.1169
     22 C         -7.709489   2.102235   9.037985 C.ar        1 UNL1     -0.0198
     23 C         -6.515947   1.379432   9.152299 C.ar        1 UNL1     -0.0516
     24 O         -9.160565   3.460935   7.696251 O.3        1 UNL1     -0.5068
     25 O         -5.806483   -2.592566   8.209776 O.2        1 UNL1     -0.2917
     26 O         -5.849153   -3.47267   5.661812 O.3        1 UNL1     -0.5058
     27 O         -0.221545   -0.255002   2.536893 O.3        1 UNL1     -0.3648
     28 O         0.239975   -1.941384   -0.619894 O.3        1 UNL1     -0.3841
     29 O         -2.456535   0.390583   -0.243574 O.3        1 UNL1     -0.3863
     30 O         -2.487248   -3.283355   -0.280333 O.3        1 UNL1     -0.3829
     31 H         0.609268   -1.897526   1.768873 H        1 UNL1     0.0937
     32 H         0.0   0.0   0.0 H        1 UNL1     0.0671
     33 H         -1.88657   -1.139141   -1.434718 H        1 UNL1     0.0649
     34 H         -3.864015   -1.793245   0.029541 H        1 UNL1     0.0683
     35 H         -3.225586   -2.957011   2.091653 H        1 UNL1     0.1085
     36 H         -4.862289   -2.987718   3.360023 H        1 UNL1     0.0691
     37 H         -2.764439   0.60022   4.524466 H        1 UNL1     0.0691
     38 H         -3.364707   -1.219479   9.00788 H        1 UNL1     0.0385
     39 H         -4.923039   -0.804991   9.748382 H        1 UNL1     0.0385
     40 H         -3.659213   1.198503   8.87769 H        1 UNL1     0.0789
     41 H         -5.310229   1.871489   6.006051 H        1 UNL1     0.0623
     42 H         -7.424181   3.119016   5.813536 H        1 UNL1     0.0654
     43 H         -8.374883   2.160318   9.89109 H        1 UNL1     0.0654
     44 H         -6.31306   0.891079   10.100557 H        1 UNL1     0.0623
     45 H         -8.916296   4.381576   7.507917 H        1 UNL1     0.2921
     46 H         -5.458365   -4.013169   6.36648 H        1 UNL1     0.2922
     47 H         0.515238   0.306988   2.259084 H        1 UNL1     0.2126
     48 H         1.181188   -1.865859   -0.370603 H        1 UNL1     0.2101
     49 H         -2.017676   0.982033   -0.875542 H        1 UNL1     0.2100
     50 H         -2.728795   -3.271707   -1.229665 H        1 UNL1     0.2102
@<TRIPOS>BOND
     1     1     2    1
     2     1     6    1
     3     2     3    1
     4     3     4    1
     5     3    29    1
     6     3    33    1
     7     4     5    1
     8     5     6    1
     9     5     7    1
    10     5    35    1
    11     7     8    1
    12     8     9   ar
    13     8    13   ar
    14     9    10   ar
    15     9    36    1
    16    10    11   ar
    17    10    26    1
    18    11    12   ar
    19    11    14    1
    20    12    13   ar
    21    12    17    1
    22    13    37    1
    23    14    15    1
    24    14    25    2
    25    15    16    1
    26    15    38    1
    27    15    39    1
    28    16    17    1
    29    16    18    1
    30    16    40    1
    31    18    19   ar
    32    18    23   ar
    33    19    20   ar
    34    19    41    1
    35    20    21   ar
    36    20    42    1
    37    21    22   ar
    38    21    24    1
    39    22    23   ar
    40    22    43    1
    41    23    44    1
    42    24    45    1
    43    26    46    1
    44    27    47    1
    45    28    48    1
    46    29    49    1
    47    30    50    1
    48     1    31    1
    49     1    27    1
    50     2    32    1
    51     2    28    1
    52     4    34    1
    53     4    30    1
