@<TRIPOS>MOLECULE
*****
 50 53 0 0 0
SMALL
GASTEIGER

@<TRIPOS>ATOM
     1 C         -0.347956   -1.338091   1.69093 C.3        1 UNL1     0.1889
     2 C         -0.469324   -0.973869   0.186751 C.3        1 UNL1     0.1342
     3 C         -1.907584   -0.948729   -0.352915 C.3        1 UNL1     0.1174
     4 C         -2.803394   -2.007084   0.295565 C.3        1 UNL1     0.1456
     5 C         -2.658991   -2.044039   1.827931 C.3        1 UNL1     0.2326
     6 O         -1.297083   -2.27296   2.18243 O.3        1 UNL1     -0.3076
     7 O         -3.229867   -0.898043   2.485285 O.3        1 UNL1     -0.4605
     8 C         -3.75714   -1.121659   3.744454 C.ar        1 UNL1     0.1310
     9 C         -4.589005   -2.189966   4.096623 C.ar        1 UNL1     0.0226
     10 C         -5.059356   -2.339642   5.406688 C.ar        1 UNL1     0.1343
     11 C         -4.689534   -1.436957   6.402796 C.ar        1 UNL1     0.1007
     12 C         -3.892645   -0.343226   6.054221 C.ar        1 UNL1     0.1389
     13 C         -3.421997   -0.191485   4.736308 C.ar        1 UNL1     0.0229
     14 C         -5.088945   -1.593977   7.82053 C.2        1 UNL1     0.1740
     15 C         -4.421848   -0.66298   8.78995 C.3        1 UNL1     0.0520
     16 C         -4.330428   0.715122   8.149298 C.3        1 UNL1     0.1322
     17 O         -3.557622   0.663444   6.929802 O.3        1 UNL1     -0.4828
     18 C         -5.680831   1.423009   8.015026 C.ar        1 UNL1     -0.0067
     19 C         -6.031511   2.018293   6.78585 C.ar        1 UNL1     -0.0516
     20 C         -7.23786   2.714201   6.643031 C.ar        1 UNL1     -0.0198
     21 C         -8.096779   2.827957   7.721524 C.ar        1 UNL1     0.1169
     22 C         -7.794685   2.224086   8.935162 C.ar        1 UNL1     -0.0198
     23 C         -6.596935   1.512418   9.072928 C.ar        1 UNL1     -0.0516
     24 O         -9.244913   3.545372   7.555676 O.3        1 UNL1     -0.5068
     25 O         -5.851753   -2.472145   8.214777 O.2        1 UNL1     -0.2917
     26 O         -5.868226   -3.40272   5.684503 O.3        1 UNL1     -0.5058
     27 O         -0.239526   -0.206428   2.539675 O.3        1 UNL1     -0.3648
     28 O         0.258683   -1.951451   -0.579438 O.3        1 UNL1     -0.3841
     29 O         -2.457286   0.367744   -0.270097 O.3        1 UNL1     -0.3863
     30 O         -2.461446   -3.306328   -0.234272 O.3        1 UNL1     -0.3829
     31 H         0.608982   -1.857698   1.810752 H        1 UNL1     0.0937
     32 H         0.0   0.0   0.0 H        1 UNL1     0.0671
     33 H         -1.867114   -1.181018   -1.426285 H        1 UNL1     0.0649
     34 H         -3.851209   -1.820479   0.035443 H        1 UNL1     0.0683
     35 H         -3.220604   -2.938573   2.12505 H        1 UNL1     0.1085
     36 H         -4.866904   -2.956158   3.381191 H        1 UNL1     0.0691
     37 H         -2.803918   0.669315   4.490351 H        1 UNL1     0.0691
     38 H         -3.426164   -1.065759   9.004212 H        1 UNL1     0.0385
     39 H         -4.993156   -0.648109   9.724383 H        1 UNL1     0.0385
     40 H         -3.736923   1.346962   8.823872 H        1 UNL1     0.0789
     41 H         -5.370226   1.950992   5.926883 H        1 UNL1     0.0623
     42 H         -7.491475   3.179001   5.693478 H        1 UNL1     0.0654
     43 H         -8.46712   2.294157   9.781821 H        1 UNL1     0.0654
     44 H         -6.397976   1.044395   10.032206 H        1 UNL1     0.0623
     45 H         -9.005767   4.46387   7.351012 H        1 UNL1     0.2921
     46 H         -5.4791   -3.926318   6.402721 H        1 UNL1     0.2922
     47 H         0.495368   0.355327   2.256441 H        1 UNL1     0.2126
     48 H         1.197356   -1.864143   -0.324483 H        1 UNL1     0.2101
     49 H         -2.017745   0.949779   -0.910279 H        1 UNL1     0.2100
     50 H         -2.695647   -3.315208   -1.185473 H        1 UNL1     0.2102
@<TRIPOS>BOND
     1     1     2    1
     2     1     6    1
     3     2     3    1
     4     3     4    1
     5     3    29    1
     6     3    33    1
     7     4     5    1
     8     5     6    1
     9     5     7    1
    10     5    35    1
    11     7     8    1
    12     8     9   ar
    13     8    13   ar
    14     9    10   ar
    15     9    36    1
    16    10    11   ar
    17    10    26    1
    18    11    12   ar
    19    11    14    1
    20    12    13   ar
    21    12    17    1
    22    13    37    1
    23    14    15    1
    24    14    25    2
    25    15    16    1
    26    15    38    1
    27    15    39    1
    28    16    17    1
    29    16    18    1
    30    16    40    1
    31    18    19   ar
    32    18    23   ar
    33    19    20   ar
    34    19    41    1
    35    20    21   ar
    36    20    42    1
    37    21    22   ar
    38    21    24    1
    39    22    23   ar
    40    22    43    1
    41    23    44    1
    42    24    45    1
    43    26    46    1
    44    27    47    1
    45    28    48    1
    46    29    49    1
    47    30    50    1
    48     1    31    1
    49     1    27    1
    50     2    32    1
    51     2    28    1
    52     4    34    1
    53     4    30    1
