@<TRIPOS>MOLECULE
*****
 50 53 0 0 0
SMALL
GASTEIGER

@<TRIPOS>ATOM
     1 C         -0.293313   -0.080924   2.16292 C.3        1 UNL1     0.1889
     2 C         -0.799844   0.202369   0.723089 C.3        1 UNL1     0.1342
     3 C         -1.329849   1.626831   0.498435 C.3        1 UNL1     0.1174
     4 C         -2.03811   2.1976   1.729575 C.3        1 UNL1     0.1456
     5 C         -1.240381   1.97202   3.026921 C.3        1 UNL1     0.2326
     6 O         -0.990949   0.579992   3.208333 O.3        1 UNL1     -0.3076
     7 O         -0.050192   2.77637   3.115192 O.3        1 UNL1     -0.4605
     8 C         0.030082   3.622502   4.206587 C.ar        1 UNL1     0.1310
     9 C         -0.212916   5.00008   4.183536 C.ar        1 UNL1     0.0226
     10 C         -0.122312   5.770571   5.348885 C.ar        1 UNL1     0.1343
     11 C         0.190527   5.177507   6.571279 C.ar        1 UNL1     0.1007
     12 C         0.475477   3.809738   6.599474 C.ar        1 UNL1     0.1389
     13 C         0.386894   3.035699   5.427106 C.ar        1 UNL1     0.0229
     14 C         0.217605   5.929029   7.847459 C.2        1 UNL1     0.1740
     15 C         0.351197   5.096369   9.08858 C.3        1 UNL1     0.0520
     16 C         1.349822   3.980244   8.814773 C.3        1 UNL1     0.1322
     17 O         0.898688   3.144109   7.72646 O.3        1 UNL1     -0.4828
     18 C         2.795706   4.465282   8.684841 C.ar        1 UNL1     -0.0067
     19 C         3.83974   3.680954   9.216852 C.ar        1 UNL1     -0.0516
     20 C         5.168491   4.117774   9.157086 C.ar        1 UNL1     -0.0198
     21 C         5.464765   5.337666   8.575783 C.ar        1 UNL1     0.1169
     22 C         4.462263   6.117073   8.01333 C.ar        1 UNL1     -0.0198
     23 C         3.135586   5.671966   8.056517 C.ar        1 UNL1     -0.0516
     24 O         6.765699   5.747462   8.569663 O.3        1 UNL1     -0.5068
     25 O         0.061965   7.145209   7.919338 O.2        1 UNL1     -0.2917
     26 O         -0.370309   7.109191   5.258441 O.3        1 UNL1     -0.5058
     27 O         1.111946   0.053204   2.304491 O.3        1 UNL1     -0.3648
     28 O         -1.877558   -0.706627   0.431604 O.3        1 UNL1     -0.3841
     29 O         -0.294443   2.481866   0.009577 O.3        1 UNL1     -0.3863
     30 O         -3.331802   1.570183   1.865215 O.3        1 UNL1     -0.3829
     31 H         -0.484   -1.141794   2.358554 H        1 UNL1     0.0937
     32 H         0.0   0.0   0.0 H        1 UNL1     0.0671
     33 H         -2.076874   1.583636   -0.30643 H        1 UNL1     0.0649
     34 H         -2.2147   3.270563   1.595536 H        1 UNL1     0.0683
     35 H         -1.933762   2.277868   3.820369 H        1 UNL1     0.1085
     36 H         -0.514928   5.510712   3.275701 H        1 UNL1     0.0691
     37 H         0.614735   1.973041   5.47546 H        1 UNL1     0.0691
     38 H         -0.638873   4.691538   9.323948 H        1 UNL1     0.0385
     39 H         0.664713   5.737909   9.91919 H        1 UNL1     0.0385
     40 H         1.343167   3.317797   9.690924 H        1 UNL1     0.0789
     41 H         3.632213   2.723854   9.686473 H        1 UNL1     0.0623
     42 H         5.963325   3.509399   9.581503 H        1 UNL1     0.0654
     43 H         4.684969   7.067032   7.542277 H        1 UNL1     0.0654
     44 H         2.379148   6.301492   7.597885 H        1 UNL1     0.0623
     45 H         7.287594   5.103894   8.063536 H        1 UNL1     0.2921
     46 H         0.082353   7.571645   5.981383 H        1 UNL1     0.2922
     47 H         1.514915   0.271885   1.452637 H        1 UNL1     0.2126
     48 H         -1.777871   -0.967732   -0.504142 H        1 UNL1     0.2101
     49 H         0.292577   2.739188   0.738266 H        1 UNL1     0.2100
     50 H         -3.415543   0.896209   1.159199 H        1 UNL1     0.2102
@<TRIPOS>BOND
     1     1     2    1
     2     1     6    1
     3     2     3    1
     4     3     4    1
     5     3    29    1
     6     3    33    1
     7     4     5    1
     8     5     6    1
     9     5     7    1
    10     5    35    1
    11     7     8    1
    12     8     9   ar
    13     8    13   ar
    14     9    10   ar
    15     9    36    1
    16    10    11   ar
    17    10    26    1
    18    11    12   ar
    19    11    14    1
    20    12    13   ar
    21    12    17    1
    22    13    37    1
    23    14    15    1
    24    14    25    2
    25    15    16    1
    26    15    38    1
    27    15    39    1
    28    16    17    1
    29    16    18    1
    30    16    40    1
    31    18    19   ar
    32    18    23   ar
    33    19    20   ar
    34    19    41    1
    35    20    21   ar
    36    20    42    1
    37    21    22   ar
    38    21    24    1
    39    22    23   ar
    40    22    43    1
    41    23    44    1
    42    24    45    1
    43    26    46    1
    44    27    47    1
    45    28    48    1
    46    29    49    1
    47    30    50    1
    48     1    31    1
    49     1    27    1
    50     2    32    1
    51     2    28    1
    52     4    34    1
    53     4    30    1
