@<TRIPOS>MOLECULE
*****
 50 53 0 0 0
SMALL
GASTEIGER

@<TRIPOS>ATOM
     1 C         -0.393828   -1.378364   1.647973 C.3        1 UNL1     0.1889
     2 C         -0.493035   -0.967844   0.154129 C.3        1 UNL1     0.1342
     3 C         -1.925325   -0.89396   -0.396829 C.3        1 UNL1     0.1174
     4 C         -2.850888   -1.949861   0.212697 C.3        1 UNL1     0.1456
     5 C         -2.721474   -2.034689   1.7445 C.3        1 UNL1     0.2326
     6 O         -1.368442   -2.305071   2.103756 O.3        1 UNL1     -0.3076
     7 O         -3.272184   -0.895482   2.430246 O.3        1 UNL1     -0.4605
     8 C         -3.747589   -1.128702   3.708184 C.ar        1 UNL1     0.1310
     9 C         -2.995599   -1.027385   4.883576 C.ar        1 UNL1     0.0226
     10 C         -3.573871   -1.26762   6.135691 C.ar        1 UNL1     0.1343
     11 C         -4.925427   -1.592074   6.244626 C.ar        1 UNL1     0.1007
     12 C         -5.67668   -1.736363   5.075188 C.ar        1 UNL1     0.1389
     13 C         -5.094351   -1.497341   3.816144 C.ar        1 UNL1     0.0229
     14 C         -5.607501   -1.774064   7.546858 C.2        1 UNL1     0.1740
     15 C         -7.101707   -1.897114   7.485575 C.3        1 UNL1     0.0520
     16 C         -7.465378   -2.757334   6.283193 C.3        1 UNL1     0.1322
     17 O         -6.986254   -2.157122   5.059569 O.3        1 UNL1     -0.4828
     18 C         -7.101608   -4.234697   6.44991 C.ar        1 UNL1     -0.0067
     19 C         -7.544713   -5.169426   5.491706 C.ar        1 UNL1     -0.0516
     20 C         -7.270001   -6.534266   5.639039 C.ar        1 UNL1     -0.0198
     21 C         -6.561043   -6.97689   6.74144 C.ar        1 UNL1     0.1169
     22 C         -6.08257   -6.076843   7.684742 C.ar        1 UNL1     -0.0198
     23 C         -6.341266   -4.709878   7.528092 C.ar        1 UNL1     -0.0516
     24 O         -6.345207   -8.317451   6.870717 O.3        1 UNL1     -0.5068
     25 O         -5.021915   -1.748721   8.626178 O.2        1 UNL1     -0.2917
     26 O         -2.785466   -1.153224   7.243353 O.3        1 UNL1     -0.5058
     27 O         -0.267523   -0.274663   2.5304 O.3        1 UNL1     -0.3648
     28 O         0.219587   -1.939199   -0.634126 O.3        1 UNL1     -0.3841
     29 O         -2.445703   0.431834   -0.280178 O.3        1 UNL1     -0.3863
     30 O         -2.533695   -3.240659   -0.352033 O.3        1 UNL1     -0.3829
     31 H         0.54991   -1.923097   1.760688 H        1 UNL1     0.0937
     32 H         0.0   0.0   0.0 H        1 UNL1     0.0671
     33 H         -1.880265   -1.095795   -1.476158 H        1 UNL1     0.0649
     34 H         -3.891753   -1.731731   -0.050782 H        1 UNL1     0.0683
     35 H         -3.305984   -2.924341   2.010481 H        1 UNL1     0.1085
     36 H         -1.954366   -0.724448   4.870015 H        1 UNL1     0.0691
     37 H         -5.700447   -1.617469   2.92076 H        1 UNL1     0.0691
     38 H         -7.513451   -0.886976   7.387528 H        1 UNL1     0.0385
     39 H         -7.465491   -2.324976   8.425987 H        1 UNL1     0.0385
     40 H         -8.559565   -2.7363   6.189212 H        1 UNL1     0.0789
     41 H         -8.110908   -4.84832   4.622244 H        1 UNL1     0.0623
     42 H         -7.627363   -7.24655   4.899473 H        1 UNL1     0.0654
     43 H         -5.513434   -6.411014   8.544 H        1 UNL1     0.0654
     44 H         -5.943223   -4.033862   8.278698 H        1 UNL1     0.0623
     45 H         -6.99714   -8.787032   6.325562 H        1 UNL1     0.2921
     46 H         -3.303045   -0.773815   7.971071 H        1 UNL1     0.2922
     47 H         -0.355351   -0.567934   3.448081 H        1 UNL1     0.2126
     48 H         0.952418   -1.46271   -1.069612 H        1 UNL1     0.2101
     49 H         -3.00272   0.499244   0.511644 H        1 UNL1     0.2100
     50 H         -1.580732   -3.244477   -0.5791 H        1 UNL1     0.2102
@<TRIPOS>BOND
     1     1     2    1
     2     1     6    1
     3     2     3    1
     4     3     4    1
     5     3    29    1
     6     3    33    1
     7     4     5    1
     8     5     6    1
     9     5     7    1
    10     5    35    1
    11     7     8    1
    12     8     9   ar
    13     8    13   ar
    14     9    10   ar
    15     9    36    1
    16    10    11   ar
    17    10    26    1
    18    11    12   ar
    19    11    14    1
    20    12    13   ar
    21    12    17    1
    22    13    37    1
    23    14    15    1
    24    14    25    2
    25    15    16    1
    26    15    38    1
    27    15    39    1
    28    16    17    1
    29    16    18    1
    30    16    40    1
    31    18    19   ar
    32    18    23   ar
    33    19    20   ar
    34    19    41    1
    35    20    21   ar
    36    20    42    1
    37    21    22   ar
    38    21    24    1
    39    22    23   ar
    40    22    43    1
    41    23    44    1
    42    24    45    1
    43    26    46    1
    44    27    47    1
    45    28    48    1
    46    29    49    1
    47    30    50    1
    48     1    31    1
    49     1    27    1
    50     2    32    1
    51     2    28    1
    52     4    34    1
    53     4    30    1
