@<TRIPOS>MOLECULE
*****
 50 53 0 0 0
SMALL
GASTEIGER

@<TRIPOS>ATOM
     1 C         -0.98201   -1.468766   1.284207 C.3        1 UNL1     0.1889
     2 C         -0.742474   -0.801802   -0.096996 C.3        1 UNL1     0.1342
     3 C         -2.005931   -0.236778   -0.763996 C.3        1 UNL1     0.1174
     4 C         -3.25353   -1.07679   -0.479404 C.3        1 UNL1     0.1456
     5 C         -3.38648   -1.450899   1.008121 C.3        1 UNL1     0.2326
     6 O         -2.21971   -2.14707   1.440399 O.3        1 UNL1     -0.3076
     7 O         -3.724746   -0.335059   1.851801 O.3        1 UNL1     -0.4605
     8 C         -2.660254   0.406212   2.332325 C.ar        1 UNL1     0.1310
     9 C         -2.470079   1.777239   2.128813 C.ar        1 UNL1     0.0226
     10 C         -1.365249   2.443228   2.672606 C.ar        1 UNL1     0.1343
     11 C         -0.435487   1.758326   3.453818 C.ar        1 UNL1     0.1007
     12 C         -0.592644   0.38098   3.629898 C.ar        1 UNL1     0.1389
     13 C         -1.702208   -0.288944   3.080808 C.ar        1 UNL1     0.0229
     14 C         0.704267   2.428254   4.121885 C.2        1 UNL1     0.1740
     15 C         1.470573   1.585806   5.098924 C.3        1 UNL1     0.0520
     16 C         1.61496   0.185761   4.518421 C.3        1 UNL1     0.1322
     17 O         0.319178   -0.410416   4.289094 O.3        1 UNL1     -0.4828
     18 C         2.568763   0.109406   3.323785 C.ar        1 UNL1     -0.0067
     19 C         3.270702   1.264795   2.923073 C.ar        1 UNL1     -0.0516
     20 C         4.114407   1.241468   1.806121 C.ar        1 UNL1     -0.0198
     21 C         4.258633   0.073539   1.078818 C.ar        1 UNL1     0.1169
     22 C         3.606646   -1.089238   1.468306 C.ar        1 UNL1     -0.0198
     23 C         2.777262   -1.070997   2.596068 C.ar        1 UNL1     -0.0516
     24 O         5.059286   0.098786   -0.025137 O.3        1 UNL1     -0.5068
     25 O         0.976525   3.615683   3.965767 O.2        1 UNL1     -0.2917
     26 O         -1.237343   3.780863   2.43605 O.3        1 UNL1     -0.5058
     27 O         -0.713449   -0.609832   2.380972 O.3        1 UNL1     -0.3648
     28 O         -0.190917   -1.787319   -0.989883 O.3        1 UNL1     -0.3841
     29 O         -2.180184   1.142532   -0.433431 O.3        1 UNL1     -0.3863
     30 O         -3.195547   -2.290576   -1.259822 O.3        1 UNL1     -0.3829
     31 H         -0.238459   -2.267658   1.378982 H        1 UNL1     0.0937
     32 H         0.0   0.0   0.0 H        1 UNL1     0.0671
     33 H         -1.849365   -0.258644   -1.851529 H        1 UNL1     0.0649
     34 H         -4.150481   -0.533834   -0.797334 H        1 UNL1     0.0683
     35 H         -4.213318   -2.171921   1.026665 H        1 UNL1     0.1085
     36 H         -3.186529   2.376711   1.577946 H        1 UNL1     0.0691
     37 H         -1.801023   -1.361808   3.231441 H        1 UNL1     0.0691
     38 H         0.90451   1.568231   6.036362 H        1 UNL1     0.0385
     39 H         2.440808   2.055251   5.293974 H        1 UNL1     0.0385
     40 H         2.07204   -0.441418   5.295752 H        1 UNL1     0.0789
     41 H         3.167361   2.196349   3.471869 H        1 UNL1     0.0623
     42 H         4.640999   2.14208   1.500162 H        1 UNL1     0.0654
     43 H         3.724246   -2.013191   0.914779 H        1 UNL1     0.0654
     44 H         2.291674   -2.000332   2.87782 H        1 UNL1     0.0623
     45 H         4.683883   0.728299   -0.661929 H        1 UNL1     0.2921
     46 H         -1.074976   4.243404   3.27337 H        1 UNL1     0.2922
     47 H         -0.620123   -1.124843   3.194552 H        1 UNL1     0.2126
     48 H         0.718252   -1.966422   -0.681556 H        1 UNL1     0.2101
     49 H         -1.961351   1.288202   0.500746 H        1 UNL1     0.2100
     50 H         -4.107079   -2.510471   -1.543491 H        1 UNL1     0.2102
@<TRIPOS>BOND
     1     1     2    1
     2     1     6    1
     3     2     3    1
     4     3     4    1
     5     3    29    1
     6     3    33    1
     7     4     5    1
     8     5     6    1
     9     5     7    1
    10     5    35    1
    11     7     8    1
    12     8     9   ar
    13     8    13   ar
    14     9    10   ar
    15     9    36    1
    16    10    11   ar
    17    10    26    1
    18    11    12   ar
    19    11    14    1
    20    12    13   ar
    21    12    17    1
    22    13    37    1
    23    14    15    1
    24    14    25    2
    25    15    16    1
    26    15    38    1
    27    15    39    1
    28    16    17    1
    29    16    18    1
    30    16    40    1
    31    18    19   ar
    32    18    23   ar
    33    19    20   ar
    34    19    41    1
    35    20    21   ar
    36    20    42    1
    37    21    22   ar
    38    21    24    1
    39    22    23   ar
    40    22    43    1
    41    23    44    1
    42    24    45    1
    43    26    46    1
    44    27    47    1
    45    28    48    1
    46    29    49    1
    47    30    50    1
    48     1    31    1
    49     1    27    1
    50     2    32    1
    51     2    28    1
    52     4    34    1
    53     4    30    1
