@<TRIPOS>MOLECULE
*****
 50 53 0 0 0
SMALL
GASTEIGER

@<TRIPOS>ATOM
     1 C         -0.369841   -1.397103   1.637719 C.3        1 UNL1     0.1889
     2 C         -0.487269   -0.971495   0.149429 C.3        1 UNL1     0.1342
     3 C         -1.925857   -0.898011   -0.384919 C.3        1 UNL1     0.1174
     4 C         -2.840222   -1.964144   0.223698 C.3        1 UNL1     0.1456
     5 C         -2.693526   -2.064345   1.753013 C.3        1 UNL1     0.2326
     6 O         -1.335491   -2.33266   2.094501 O.3        1 UNL1     -0.3076
     7 O         -3.241356   -0.934699   2.456647 O.3        1 UNL1     -0.4605
     8 C         -3.770279   -1.197958   3.707432 C.ar        1 UNL1     0.1310
     9 C         -4.618706   -2.265513   4.020159 C.ar        1 UNL1     0.0226
     10 C         -5.089448   -2.457761   5.324515 C.ar        1 UNL1     0.1343
     11 C         -4.703657   -1.599983   6.3537 C.ar        1 UNL1     0.1007
     12 C         -3.889787   -0.506602   6.045613 C.ar        1 UNL1     0.1389
     13 C         -3.418725   -0.311995   4.733492 C.ar        1 UNL1     0.0229
     14 C         -5.103426   -1.804834   7.765215 C.2        1 UNL1     0.1740
     15 C         -4.419982   -0.922509   8.768189 C.3        1 UNL1     0.0520
     16 C         -4.307347   0.477505   8.180625 C.3        1 UNL1     0.1322
     17 O         -3.537295   0.460251   6.958417 O.3        1 UNL1     -0.4828
     18 C         -5.64638   1.211574   8.076427 C.ar        1 UNL1     -0.0067
     19 C         -6.84397   0.50365   8.306289 C.ar        1 UNL1     -0.0516
     20 C         -8.087369   1.133013   8.172781 C.ar        1 UNL1     -0.0198
     21 C         -8.146675   2.464932   7.803591 C.ar        1 UNL1     0.1169
     22 C         -6.983902   3.197445   7.603036 C.ar        1 UNL1     -0.0198
     23 C         -5.739948   2.573185   7.754473 C.ar        1 UNL1     -0.0516
     24 O         -9.376253   3.034015   7.646478 O.3        1 UNL1     -0.5068
     25 O         -5.87968   -2.685136   8.12713 O.2        1 UNL1     -0.2917
     26 O         -5.91491   -3.517609   5.563095 O.3        1 UNL1     -0.5058
     27 O         -0.238382   -0.30211   2.530185 O.3        1 UNL1     -0.3648
     28 O         0.22063   -1.931541   -0.656732 O.3        1 UNL1     -0.3841
     29 O         -2.450428   0.424261   -0.248699 O.3        1 UNL1     -0.3863
     30 O         -2.523923   -3.247629   -0.357947 O.3        1 UNL1     -0.3829
     31 H         0.577344   -1.938937   1.734336 H        1 UNL1     0.0937
     32 H         0.0   0.0   0.0 H        1 UNL1     0.0671
     33 H         -1.891896   -1.088413   -1.466729 H        1 UNL1     0.0649
     34 H         -3.884835   -1.747739   -0.026009 H        1 UNL1     0.0683
     35 H         -3.271352   -2.959208   2.016105 H        1 UNL1     0.1085
     36 H         -4.90997   -2.999153   3.276479 H        1 UNL1     0.0691
     37 H         -2.787238   0.547586   4.519397 H        1 UNL1     0.0691
     38 H         -3.430591   -1.349115   8.964759 H        1 UNL1     0.0385
     39 H         -4.98958   -0.934328   9.703709 H        1 UNL1     0.0385
     40 H         -3.702742   1.073417   8.877662 H        1 UNL1     0.0789
     41 H         -6.824473   -0.545061   8.588202 H        1 UNL1     0.0623
     42 H         -9.004053   0.573227   8.341132 H        1 UNL1     0.0654
     43 H         -7.018571   4.244937   7.32832 H        1 UNL1     0.0654
     44 H         -4.85186   3.178488   7.600358 H        1 UNL1     0.0623
     45 H         -9.67406   3.363956   8.509708 H        1 UNL1     0.2921
     46 H         -5.701564   -3.905943   6.426282 H        1 UNL1     0.2922
     47 H         -1.110955   0.01251   2.804941 H        1 UNL1     0.2126
     48 H         -0.335713   -2.10272   -1.440896 H        1 UNL1     0.2101
     49 H         -2.998931   0.481048   0.549871 H        1 UNL1     0.2100
     50 H         -1.988921   -3.74935   0.291484 H        1 UNL1     0.2102
@<TRIPOS>BOND
     1     1     2    1
     2     1     6    1
     3     2     3    1
     4     3     4    1
     5     3    29    1
     6     3    33    1
     7     4     5    1
     8     5     6    1
     9     5     7    1
    10     5    35    1
    11     7     8    1
    12     8     9   ar
    13     8    13   ar
    14     9    10   ar
    15     9    36    1
    16    10    11   ar
    17    10    26    1
    18    11    12   ar
    19    11    14    1
    20    12    13   ar
    21    12    17    1
    22    13    37    1
    23    14    15    1
    24    14    25    2
    25    15    16    1
    26    15    38    1
    27    15    39    1
    28    16    17    1
    29    16    18    1
    30    16    40    1
    31    18    19   ar
    32    18    23   ar
    33    19    20   ar
    34    19    41    1
    35    20    21   ar
    36    20    42    1
    37    21    22   ar
    38    21    24    1
    39    22    23   ar
    40    22    43    1
    41    23    44    1
    42    24    45    1
    43    26    46    1
    44    27    47    1
    45    28    48    1
    46    29    49    1
    47    30    50    1
    48     1    31    1
    49     1    27    1
    50     2    32    1
    51     2    28    1
    52     4    34    1
    53     4    30    1
