@<TRIPOS>MOLECULE
*****
 50 53 0 0 0
SMALL
GASTEIGER

@<TRIPOS>ATOM
     1 C         -0.222032   -1.299334   1.741619 C.3        1 UNL1     0.1889
     2 C         -0.401919   -0.994522   0.230107 C.3        1 UNL1     0.1342
     3 C         -1.851255   -1.077932   -0.272818 C.3        1 UNL1     0.1174
     4 C         -2.662366   -2.167867   0.432347 C.3        1 UNL1     0.1456
     5 C         -2.479629   -2.143846   1.960874 C.3        1 UNL1     0.2326
     6 O         -1.097906   -2.274751   2.287331 O.3        1 UNL1     -0.3076
     7 O         -3.106448   -1.01435   2.595428 O.3        1 UNL1     -0.4605
     8 C         -4.469897   -1.116534   2.80541 C.ar        1 UNL1     0.1310
     9 C         -5.279761   -2.171665   2.371683 C.ar        1 UNL1     0.0226
     10 C         -6.651744   -2.192395   2.649416 C.ar        1 UNL1     0.1343
     11 C         -7.243399   -1.169192   3.388903 C.ar        1 UNL1     0.1007
     12 C         -6.452718   -0.089846   3.792161 C.ar        1 UNL1     0.1389
     13 C         -5.073726   -0.067935   3.510499 C.ar        1 UNL1     0.0229
     14 C         -8.671273   -1.18222   3.782807 C.2        1 UNL1     0.1740
     15 C         -9.084778   -0.121745   4.760536 C.3        1 UNL1     0.0520
     16 C         -8.387017   1.178276   4.384994 C.3        1 UNL1     0.1322
     17 O         -6.951598   1.021638   4.430901 O.3        1 UNL1     -0.4828
     18 C         -8.915193   1.81077   3.095147 C.ar        1 UNL1     -0.0067
     19 C         -10.304645   1.980846   2.925708 C.ar        1 UNL1     -0.0516
     20 C         -10.823862   2.512195   1.739097 C.ar        1 UNL1     -0.0198
     21 C         -9.966518   2.869667   0.713913 C.ar        1 UNL1     0.1169
     22 C         -8.591424   2.745314   0.863879 C.ar        1 UNL1     -0.0198
     23 C         -8.070842   2.231193   2.0575 C.ar        1 UNL1     -0.0516
     24 O         -10.510884   3.348336   -0.441484 O.3        1 UNL1     -0.5068
     25 O         -9.467138   -2.041026   3.411949 O.2        1 UNL1     -0.2917
     26 O         -7.385893   -3.249744   2.197063 O.3        1 UNL1     -0.5058
     27 O         -0.165663   -0.135043   2.550344 O.3        1 UNL1     -0.3648
     28 O         0.368384   -1.949854   -0.522674 O.3        1 UNL1     -0.3841
     29 O         -2.481401   0.203506   -0.218356 O.3        1 UNL1     -0.3863
     30 O         -2.251186   -3.460272   -0.063951 O.3        1 UNL1     -0.3829
     31 H         0.768567   -1.75353   1.85342 H        1 UNL1     0.0937
     32 H         0.0   0.0   0.0 H        1 UNL1     0.0671
     33 H         -1.821554   -1.343391   -1.338824 H        1 UNL1     0.0649
     34 H         -3.725793   -2.056273   0.193452 H        1 UNL1     0.0683
     35 H         -2.976052   -3.061292   2.301075 H        1 UNL1     0.1085
     36 H         -4.870025   -3.024074   1.840989 H        1 UNL1     0.0691
     37 H         -4.480351   0.784359   3.834527 H        1 UNL1     0.0691
     38 H         -8.784753   -0.456845   5.759145 H        1 UNL1     0.0385
     39 H         -10.175774   -0.025418   4.745503 H        1 UNL1     0.0385
     40 H         -8.609308   1.905619   5.177509 H        1 UNL1     0.0789
     41 H         -10.999119   1.699443   3.711946 H        1 UNL1     0.0623
     42 H         -11.897909   2.627352   1.615916 H        1 UNL1     0.0654
     43 H         -7.910139   3.036202   0.073219 H        1 UNL1     0.0654
     44 H         -6.99107   2.157741   2.144347 H        1 UNL1     0.0623
     45 H         -10.02268   4.14576   -0.703191 H        1 UNL1     0.2921
     46 H         -6.810093   -3.856861   1.705866 H        1 UNL1     0.2922
     47 H         -0.989924   0.365634   2.474345 H        1 UNL1     0.2126
     48 H         -0.186175   -2.222668   -1.278828 H        1 UNL1     0.2101
     49 H         -3.409856   0.103732   0.045861 H        1 UNL1     0.2100
     50 H         -1.6644   -3.867888   0.606306 H        1 UNL1     0.2102
@<TRIPOS>BOND
     1     1     2    1
     2     1     6    1
     3     2     3    1
     4     3     4    1
     5     3    29    1
     6     3    33    1
     7     4     5    1
     8     5     6    1
     9     5     7    1
    10     5    35    1
    11     7     8    1
    12     8     9   ar
    13     8    13   ar
    14     9    10   ar
    15     9    36    1
    16    10    11   ar
    17    10    26    1
    18    11    12   ar
    19    11    14    1
    20    12    13   ar
    21    12    17    1
    22    13    37    1
    23    14    15    1
    24    14    25    2
    25    15    16    1
    26    15    38    1
    27    15    39    1
    28    16    17    1
    29    16    18    1
    30    16    40    1
    31    18    19   ar
    32    18    23   ar
    33    19    20   ar
    34    19    41    1
    35    20    21   ar
    36    20    42    1
    37    21    22   ar
    38    21    24    1
    39    22    23   ar
    40    22    43    1
    41    23    44    1
    42    24    45    1
    43    26    46    1
    44    27    47    1
    45    28    48    1
    46    29    49    1
    47    30    50    1
    48     1    31    1
    49     1    27    1
    50     2    32    1
    51     2    28    1
    52     4    34    1
    53     4    30    1
