@<TRIPOS>MOLECULE
*****
 50 53 0 0 0
SMALL
GASTEIGER

@<TRIPOS>ATOM
     1 C         -0.808293   -0.289174   2.008444 C.3        1 UNL1     0.1889
     2 C         0.367886   -0.278514   0.995315 C.3        1 UNL1     0.1342
     3 C         1.137459   -1.604257   0.892222 C.3        1 UNL1     0.1174
     4 C         1.232364   -2.341036   2.230604 C.3        1 UNL1     0.1456
     5 C         -0.117607   -2.400912   2.968409 C.3        1 UNL1     0.2326
     6 O         -0.619544   -1.081917   3.17134 O.3        1 UNL1     -0.3076
     7 O         -1.072265   -3.280182   2.346449 O.3        1 UNL1     -0.4605
     8 C         -1.589889   -4.279443   3.150856 C.ar        1 UNL1     0.1310
     9 C         -2.947047   -4.473997   3.429373 C.ar        1 UNL1     0.0226
     10 C         -3.374588   -5.528577   4.244831 C.ar        1 UNL1     0.1343
     11 C         -2.456313   -6.42927   4.782757 C.ar        1 UNL1     0.1007
     12 C         -1.095046   -6.221132   4.545243 C.ar        1 UNL1     0.1389
     13 C         -0.665208   -5.159126   3.727433 C.ar        1 UNL1     0.0229
     14 C         -2.859433   -7.609601   5.581799 C.2        1 UNL1     0.1740
     15 C         -1.765546   -8.589394   5.889965 C.3        1 UNL1     0.0520
     16 C         -0.501308   -7.810246   6.225508 C.3        1 UNL1     0.1322
     17 O         -0.099037   -6.981663   5.11254 O.3        1 UNL1     -0.4828
     18 C         -0.56589   -7.080092   7.56917 C.ar        1 UNL1     -0.0067
     19 C         -1.788017   -7.026978   8.270454 C.ar        1 UNL1     -0.0516
     20 C         -1.893172   -6.327304   9.478494 C.ar        1 UNL1     -0.0198
     21 C         -0.787835   -5.671915   9.990864 C.ar        1 UNL1     0.1169
     22 C         0.437697   -5.733907   9.340427 C.ar        1 UNL1     -0.0198
     23 C         0.547715   -6.448926   8.141803 C.ar        1 UNL1     -0.0516
     24 O         -0.93773   -4.969177   11.150214 O.3        1 UNL1     -0.5068
     25 O         -4.019788   -7.83684   5.914099 O.2        1 UNL1     -0.2917
     26 O         -4.712162   -5.662465   4.478397 O.3        1 UNL1     -0.5058
     27 O         -2.070019   -0.533177   1.407365 O.3        1 UNL1     -0.3648
     28 O         1.309211   0.732892   1.39988 O.3        1 UNL1     -0.3841
     29 O         0.603656   -2.420509   -0.152248 O.3        1 UNL1     -0.3863
     30 O         2.192889   -1.669137   3.074188 O.3        1 UNL1     -0.3829
     31 H         -0.890211   0.729346   2.403395 H        1 UNL1     0.0937
     32 H         0.0   0.0   -0.0 H        1 UNL1     0.0671
     33 H         2.166303   -1.371671   0.583831 H        1 UNL1     0.0649
     34 H         1.602924   -3.359712   2.071276 H        1 UNL1     0.0683
     35 H         0.13907   -2.800206   3.957631 H        1 UNL1     0.1085
     36 H         -3.714389   -3.841862   2.996114 H        1 UNL1     0.0691
     37 H         0.400236   -5.01803   3.558867 H        1 UNL1     0.0691
     38 H         -1.620575   -9.213998   5.002057 H        1 UNL1     0.0385
     39 H         -2.084585   -9.235916   6.714586 H        1 UNL1     0.0385
     40 H         0.311309   -8.541709   6.331031 H        1 UNL1     0.0789
     41 H         -2.672479   -7.525474   7.884606 H        1 UNL1     0.0623
     42 H         -2.844061   -6.283767   10.003781 H        1 UNL1     0.0654
     43 H         1.31336   -5.236893   9.740553 H        1 UNL1     0.0654
     44 H         1.522964   -6.485133   7.665964 H        1 UNL1     0.0623
     45 H         -0.178062   -5.158999   11.724313 H        1 UNL1     0.2921
     46 H         -4.980094   -6.579354   4.308283 H        1 UNL1     0.2922
     47 H         -2.075594   -1.401721   0.981383 H        1 UNL1     0.2126
     48 H         0.804757   1.397534   1.907334 H        1 UNL1     0.2101
     49 H         0.303578   -1.861942   -0.886925 H        1 UNL1     0.2100
     50 H         1.697401   -1.149936   3.740998 H        1 UNL1     0.2102
@<TRIPOS>BOND
     1     1     2    1
     2     1     6    1
     3     2     3    1
     4     3     4    1
     5     3    29    1
     6     3    33    1
     7     4     5    1
     8     5     6    1
     9     5     7    1
    10     5    35    1
    11     7     8    1
    12     8     9   ar
    13     8    13   ar
    14     9    10   ar
    15     9    36    1
    16    10    11   ar
    17    10    26    1
    18    11    12   ar
    19    11    14    1
    20    12    13   ar
    21    12    17    1
    22    13    37    1
    23    14    15    1
    24    14    25    2
    25    15    16    1
    26    15    38    1
    27    15    39    1
    28    16    17    1
    29    16    18    1
    30    16    40    1
    31    18    19   ar
    32    18    23   ar
    33    19    20   ar
    34    19    41    1
    35    20    21   ar
    36    20    42    1
    37    21    22   ar
    38    21    24    1
    39    22    23   ar
    40    22    43    1
    41    23    44    1
    42    24    45    1
    43    26    46    1
    44    27    47    1
    45    28    48    1
    46    29    49    1
    47    30    50    1
    48     1    31    1
    49     1    27    1
    50     2    32    1
    51     2    28    1
    52     4    34    1
    53     4    30    1
