@<TRIPOS>MOLECULE
*****
 50 53 0 0 0
SMALL
GASTEIGER

@<TRIPOS>ATOM
     1 C         -0.246904   -1.286272   1.747955 C.3        1 UNL1     0.1889
     2 C         -0.415424   -0.988087   0.233812 C.3        1 UNL1     0.1342
     3 C         -1.863155   -1.056414   -0.275963 C.3        1 UNL1     0.1174
     4 C         -2.691296   -2.132044   0.43137 C.3        1 UNL1     0.1456
     5 C         -2.515915   -2.101362   1.96064 C.3        1 UNL1     0.2326
     6 O         -1.13758   -2.247521   2.29485 O.3        1 UNL1     -0.3076
     7 O         -3.131777   -0.960473   2.585466 O.3        1 UNL1     -0.4605
     8 C         -3.612658   -1.157433   3.867452 C.ar        1 UNL1     0.1310
     9 C         -4.374705   -2.252871   4.287689 C.ar        1 UNL1     0.0226
     10 C         -4.801519   -2.370784   5.615781 C.ar        1 UNL1     0.1343
     11 C         -4.45611   -1.407057   6.56223 C.ar        1 UNL1     0.1007
     12 C         -3.730284   -0.28799   6.145516 C.ar        1 UNL1     0.1389
     13 C         -3.303493   -0.168343   4.809491 C.ar        1 UNL1     0.0229
     14 C         -4.808886   -1.523788   7.996132 C.2        1 UNL1     0.1740
     15 C         -4.169023   -0.516901   8.906244 C.3        1 UNL1     0.0520
     16 C         -4.170721   0.835034   8.206082 C.3        1 UNL1     0.1322
     17 O         -3.428517   0.77236   6.968231 O.3        1 UNL1     -0.4828
     18 C         -5.561227   1.462373   8.080931 C.ar        1 UNL1     -0.0067
     19 C         -5.9764   1.983934   6.838426 C.ar        1 UNL1     -0.0516
     20 C         -7.222683   2.606741   6.701124 C.ar        1 UNL1     -0.0198
     21 C         -8.057969   2.72057   7.798014 C.ar        1 UNL1     0.1169
     22 C         -7.691225   2.187141   9.026749 C.ar        1 UNL1     -0.0198
     23 C         -6.452786   1.547928   9.159911 C.ar        1 UNL1     -0.0516
     24 O         -9.247939   3.366981   7.635147 O.3        1 UNL1     -0.5068
     25 O         -5.511404   -2.423986   8.448457 O.2        1 UNL1     -0.2917
     26 O         -5.542854   -3.462988   5.960885 O.3        1 UNL1     -0.5058
     27 O         -0.180076   -0.118065   2.550209 O.3        1 UNL1     -0.3648
     28 O         0.34667   -1.957304   -0.509516 O.3        1 UNL1     -0.3841
     29 O         -2.477551   0.233054   -0.232107 O.3        1 UNL1     -0.3863
     30 O         -2.293775   -3.432338   -0.055355 O.3        1 UNL1     -0.3829
     31 H         0.737388   -1.752085   1.8674 H        1 UNL1     0.0937
     32 H         0.0   0.0   0.0 H        1 UNL1     0.0671
     33 H         -1.831436   -1.328448   -1.340252 H        1 UNL1     0.0649
     34 H         -3.752043   -2.008638   0.186445 H        1 UNL1     0.0683
     35 H         -3.025424   -3.010562   2.303619 H        1 UNL1     0.1085
     36 H         -4.628535   -3.063286   3.613212 H        1 UNL1     0.0691
     37 H         -2.74058   0.713136   4.510129 H        1 UNL1     0.0691
     38 H         -3.147328   -0.855575   9.108642 H        1 UNL1     0.0385
     39 H         -4.715555   -0.492417   9.855181 H        1 UNL1     0.0385
     40 H         -3.595526   1.526713   8.836361 H        1 UNL1     0.0789
     41 H         -5.335181   1.915287   5.964483 H        1 UNL1     0.0623
     42 H         -7.526424   3.015513   5.740572 H        1 UNL1     0.0654
     43 H         -8.344048   2.257415   9.888604 H        1 UNL1     0.0654
     44 H         -6.203165   1.133407   10.131871 H        1 UNL1     0.0623
     45 H         -9.065696   4.281206   7.363677 H        1 UNL1     0.2921
     46 H         -5.10668   -3.933126   6.688988 H        1 UNL1     0.2922
     47 H         0.530519   0.460664   2.24039 H        1 UNL1     0.2126
     48 H         1.282143   -1.828024   -0.260701 H        1 UNL1     0.2101
     49 H         -2.080568   0.810763   -0.903263 H        1 UNL1     0.2100
     50 H         -2.545369   -3.490392   -1.000364 H        1 UNL1     0.2102
@<TRIPOS>BOND
     1     1     2    1
     2     1     6    1
     3     2     3    1
     4     3     4    1
     5     3    29    1
     6     3    33    1
     7     4     5    1
     8     5     6    1
     9     5     7    1
    10     5    35    1
    11     7     8    1
    12     8     9   ar
    13     8    13   ar
    14     9    10   ar
    15     9    36    1
    16    10    11   ar
    17    10    26    1
    18    11    12   ar
    19    11    14    1
    20    12    13   ar
    21    12    17    1
    22    13    37    1
    23    14    15    1
    24    14    25    2
    25    15    16    1
    26    15    38    1
    27    15    39    1
    28    16    17    1
    29    16    18    1
    30    16    40    1
    31    18    19   ar
    32    18    23   ar
    33    19    20   ar
    34    19    41    1
    35    20    21   ar
    36    20    42    1
    37    21    22   ar
    38    21    24    1
    39    22    23   ar
    40    22    43    1
    41    23    44    1
    42    24    45    1
    43    26    46    1
    44    27    47    1
    45    28    48    1
    46    29    49    1
    47    30    50    1
    48     1    31    1
    49     1    27    1
    50     2    32    1
    51     2    28    1
    52     4    34    1
    53     4    30    1
