@<TRIPOS>MOLECULE
*****
 50 53 0 0 0
SMALL
GASTEIGER

@<TRIPOS>ATOM
     1 C         -0.323039   -1.362413   1.67639 C.3        1 UNL1     0.1889
     2 C         -0.464455   -0.977634   0.179096 C.3        1 UNL1     0.1342
     3 C         -1.909525   -0.948867   -0.341873 C.3        1 UNL1     0.1174
     4 C         -2.794343   -2.01855   0.303103 C.3        1 UNL1     0.1456
     5 C         -2.630359   -2.076424   1.832849 C.3        1 UNL1     0.2326
     6 O         -1.263477   -2.306581   2.166813 O.3        1 UNL1     -0.3076
     7 O         -3.195708   -0.941225   2.513308 O.3        1 UNL1     -0.4605
     8 C         -3.70635   -1.183752   3.775826 C.ar        1 UNL1     0.1310
     9 C         -4.530973   -2.259091   4.123594 C.ar        1 UNL1     0.0226
     10 C         -4.984236   -2.428241   5.437308 C.ar        1 UNL1     0.1343
     11 C         -4.604043   -1.538504   6.441131 C.ar        1 UNL1     0.1007
     12 C         -3.814411   -0.437887   6.097755 C.ar        1 UNL1     0.1389
     13 C         -3.360955   -0.266563   4.776219 C.ar        1 UNL1     0.0229
     14 C         -4.984983   -1.716303   7.861492 C.2        1 UNL1     0.1740
     15 C         -4.307951   -0.797084   8.835255 C.3        1 UNL1     0.0520
     16 C         -4.228161   0.590036   8.212769 C.3        1 UNL1     0.1322
     17 O         -3.470808   0.557407   6.982963 O.3        1 UNL1     -0.4828
     18 C         -5.581942   1.29608   8.105525 C.ar        1 UNL1     -0.0067
     19 C         -5.949734   1.907454   6.889316 C.ar        1 UNL1     -0.0516
     20 C         -7.159551   2.602028   6.771533 C.ar        1 UNL1     -0.0198
     21 C         -8.00496   2.698457   7.862318 C.ar        1 UNL1     0.1169
     22 C         -7.685927   2.078582   9.063489 C.ar        1 UNL1     -0.0198
     23 C         -6.484732   1.368297   9.17611 C.ar        1 UNL1     -0.0516
     24 O         -9.156914   3.415012   7.72107 O.3        1 UNL1     -0.5068
     25 O         -5.740498   -2.601922   8.253106 O.2        1 UNL1     -0.2917
     26 O         -5.786825   -3.497256   5.710517 O.3        1 UNL1     -0.5058
     27 O         -0.206668   -0.242375   2.539385 O.3        1 UNL1     -0.3648
     28 O         0.256202   -1.942499   -0.609824 O.3        1 UNL1     -0.3841
     29 O         -2.461443   0.364841   -0.233742 O.3        1 UNL1     -0.3863
     30 O         -2.455894   -3.309373   -0.249091 O.3        1 UNL1     -0.3829
     31 H         0.636652   -1.881055   1.776804 H        1 UNL1     0.0937
     32 H         0.0   0.0   0.0 H        1 UNL1     0.0671
     33 H         -1.882132   -1.166095   -1.418805 H        1 UNL1     0.0649
     34 H         -3.845849   -1.83117   0.058925 H        1 UNL1     0.0683
     35 H         -3.18589   -2.976514   2.124571 H        1 UNL1     0.1085
     36 H         -4.816022   -3.016005   3.401134 H        1 UNL1     0.0691
     37 H         -2.748226   0.599238   4.534463 H        1 UNL1     0.0691
     38 H         -3.308609   -1.200119   9.031229 H        1 UNL1     0.0385
     39 H         -4.867357   -0.79675   9.776978 H        1 UNL1     0.0385
     40 H         -3.627714   1.21403   8.888501 H        1 UNL1     0.0789
     41 H         -5.299266   1.85389   6.021173 H        1 UNL1     0.0623
     42 H         -7.426398   3.079304   5.831846 H        1 UNL1     0.0654
     43 H         -8.347708   2.135057   9.919507 H        1 UNL1     0.0654
     44 H         -6.272404   0.887515   10.126168 H        1 UNL1     0.0623
     45 H         -8.922706   4.336909   7.526213 H        1 UNL1     0.2921
     46 H         -5.387274   -4.029742   6.41637 H        1 UNL1     0.2922
     47 H         0.523146   0.325244   2.254708 H        1 UNL1     0.2126
     48 H         1.196332   -1.864069   -0.357364 H        1 UNL1     0.2101
     49 H         -2.03155   0.956906   -0.871273 H        1 UNL1     0.2100
     50 H         -2.702157   -3.305653   -1.197275 H        1 UNL1     0.2102
@<TRIPOS>BOND
     1     1     2    1
     2     1     6    1
     3     2     3    1
     4     3     4    1
     5     3    29    1
     6     3    33    1
     7     4     5    1
     8     5     6    1
     9     5     7    1
    10     5    35    1
    11     7     8    1
    12     8     9   ar
    13     8    13   ar
    14     9    10   ar
    15     9    36    1
    16    10    11   ar
    17    10    26    1
    18    11    12   ar
    19    11    14    1
    20    12    13   ar
    21    12    17    1
    22    13    37    1
    23    14    15    1
    24    14    25    2
    25    15    16    1
    26    15    38    1
    27    15    39    1
    28    16    17    1
    29    16    18    1
    30    16    40    1
    31    18    19   ar
    32    18    23   ar
    33    19    20   ar
    34    19    41    1
    35    20    21   ar
    36    20    42    1
    37    21    22   ar
    38    21    24    1
    39    22    23   ar
    40    22    43    1
    41    23    44    1
    42    24    45    1
    43    26    46    1
    44    27    47    1
    45    28    48    1
    46    29    49    1
    47    30    50    1
    48     1    31    1
    49     1    27    1
    50     2    32    1
    51     2    28    1
    52     4    34    1
    53     4    30    1
