@<TRIPOS>MOLECULE
*****
 50 53 0 0 0
SMALL
GASTEIGER

@<TRIPOS>ATOM
     1 C         -0.368928   -1.397218   1.637828 C.3        1 UNL1     0.1889
     2 C         -0.486914   -0.971651   0.149569 C.3        1 UNL1     0.1342
     3 C         -1.925678   -0.898631   -0.384371 C.3        1 UNL1     0.1174
     4 C         -2.839527   -1.965056   0.224507 C.3        1 UNL1     0.1456
     5 C         -2.692366   -2.065206   1.753781 C.3        1 UNL1     0.2326
     6 O         -1.334147   -2.333084   2.094885 O.3        1 UNL1     -0.3076
     7 O         -3.24036   -0.935734   2.457567 O.3        1 UNL1     -0.4605
     8 C         -3.768844   -1.19916   3.708503 C.ar        1 UNL1     0.1310
     9 C         -4.609874   -2.271925   4.023375 C.ar        1 UNL1     0.0226
     10 C         -5.080757   -2.463762   5.327741 C.ar        1 UNL1     0.1343
     11 C         -4.702421   -1.600195   6.35485 C.ar        1 UNL1     0.1007
     12 C         -3.89614   -0.501843   6.044501 C.ar        1 UNL1     0.1389
     13 C         -3.424945   -0.307667   4.732365 C.ar        1 UNL1     0.0229
     14 C         -5.10237   -1.803806   7.766494 C.2        1 UNL1     0.1740
     15 C         -4.426536   -0.91361   8.767668 C.3        1 UNL1     0.0520
     16 C         -4.323364   0.485457   8.176124 C.3        1 UNL1     0.1322
     17 O         -3.551756   0.470213   6.954871 O.3        1 UNL1     -0.4828
     18 C         -5.667562   1.20948   8.068209 C.ar        1 UNL1     -0.0067
     19 C         -5.7658   2.373408   7.278378 C.ar        1 UNL1     -0.0516
     20 C         -6.967901   3.086239   7.195983 C.ar        1 UNL1     -0.0198
     21 C         -8.074382   2.650559   7.902884 C.ar        1 UNL1     0.1169
     22 C         -8.018122   1.489313   8.662609 C.ar        1 UNL1     -0.0198
     23 C         -6.82132   0.766047   8.730482 C.ar        1 UNL1     -0.0516
     24 O         -9.217095   3.391543   7.82839 O.3        1 UNL1     -0.5068
     25 O         -5.872647   -2.688655   8.130088 O.2        1 UNL1     -0.2917
     26 O         -5.898791   -3.52887   5.568471 O.3        1 UNL1     -0.5058
     27 O         -0.237568   -0.30218   2.530253 O.3        1 UNL1     -0.3648
     28 O         0.221065   -1.931472   -0.65679 O.3        1 UNL1     -0.3841
     29 O         -2.450634   0.423473   -0.248005 O.3        1 UNL1     -0.3863
     30 O         -2.522981   -3.248441   -0.357224 O.3        1 UNL1     -0.3829
     31 H         0.578458   -1.938747   1.734177 H        1 UNL1     0.0937
     32 H         0.0   0.0   0.0 H        1 UNL1     0.0671
     33 H         -1.891961   -1.089025   -1.466191 H        1 UNL1     0.0649
     34 H         -3.884281   -1.748987   -0.024904 H        1 UNL1     0.0683
     35 H         -3.269829   -2.960254   2.017039 H        1 UNL1     0.1085
     36 H         -4.894925   -3.009835   3.281516 H        1 UNL1     0.0691
     37 H         -2.799457   0.555845   4.516482 H        1 UNL1     0.0691
     38 H         -3.434311   -1.332446   8.966644 H        1 UNL1     0.0385
     39 H         -4.997144   -0.926822   9.702553 H        1 UNL1     0.0385
     40 H         -3.723926   1.087782   8.872112 H        1 UNL1     0.0789
     41 H         -4.909044   2.741099   6.721221 H        1 UNL1     0.0623
     42 H         -7.027689   3.988931   6.593003 H        1 UNL1     0.0654
     43 H         -8.882865   1.130853   9.208169 H        1 UNL1     0.0654
     44 H         -6.8162   -0.142405   9.325069 H        1 UNL1     0.0623
     45 H         -9.049554   4.25566   8.238206 H        1 UNL1     0.2921
     46 H         -5.525041   -4.068927   6.282657 H        1 UNL1     0.2922
     47 H         0.506994   0.256656   2.267214 H        1 UNL1     0.2126
     48 H         1.166263   -1.84782   -0.425846 H        1 UNL1     0.2101
     49 H         -2.002046   1.022063   -0.866271 H        1 UNL1     0.2100
     50 H         -2.780415   -3.22293   -1.3021 H        1 UNL1     0.2102
@<TRIPOS>BOND
     1     1     2    1
     2     1     6    1
     3     2     3    1
     4     3     4    1
     5     3    29    1
     6     3    33    1
     7     4     5    1
     8     5     6    1
     9     5     7    1
    10     5    35    1
    11     7     8    1
    12     8     9   ar
    13     8    13   ar
    14     9    10   ar
    15     9    36    1
    16    10    11   ar
    17    10    26    1
    18    11    12   ar
    19    11    14    1
    20    12    13   ar
    21    12    17    1
    22    13    37    1
    23    14    15    1
    24    14    25    2
    25    15    16    1
    26    15    38    1
    27    15    39    1
    28    16    17    1
    29    16    18    1
    30    16    40    1
    31    18    19   ar
    32    18    23   ar
    33    19    20   ar
    34    19    41    1
    35    20    21   ar
    36    20    42    1
    37    21    22   ar
    38    21    24    1
    39    22    23   ar
    40    22    43    1
    41    23    44    1
    42    24    45    1
    43    26    46    1
    44    27    47    1
    45    28    48    1
    46    29    49    1
    47    30    50    1
    48     1    31    1
    49     1    27    1
    50     2    32    1
    51     2    28    1
    52     4    34    1
    53     4    30    1
