@<TRIPOS>MOLECULE
*****
 50 53 0 0 0
SMALL
GASTEIGER

@<TRIPOS>ATOM
     1 C         -0.554765   -1.239436   1.7108 C.3        1 UNL1     0.1889
     2 C         -0.529804   -0.94222   0.187324 C.3        1 UNL1     0.1342
     3 C         -1.913942   -0.879362   -0.476511 C.3        1 UNL1     0.1174
     4 C         -2.911611   -1.865097   0.136759 C.3        1 UNL1     0.1456
     5 C         -2.900319   -1.83541   1.67603 C.3        1 UNL1     0.2326
     6 O         -1.586177   -2.107064   2.157799 O.3        1 UNL1     -0.3076
     7 O         -3.469412   -0.635355   2.230398 O.3        1 UNL1     -0.4605
     8 C         -4.112253   -0.775304   3.447237 C.ar        1 UNL1     0.1310
     9 C         -5.018536   -1.790128   3.772942 C.ar        1 UNL1     0.0226
     10 C         -5.605755   -1.85613   5.042083 C.ar        1 UNL1     0.1343
     11 C         -5.282419   -0.92169   6.024995 C.ar        1 UNL1     0.1007
     12 C         -4.41011   0.120116   5.698647 C.ar        1 UNL1     0.1389
     13 C         -3.821828   0.187781   4.421628 C.ar        1 UNL1     0.0229
     14 C         -5.808595   -0.992657   7.407838 C.2        1 UNL1     0.1740
     15 C         -5.185817   -0.043444   8.389007 C.3        1 UNL1     0.0520
     16 C         -4.977802   1.296755   7.697232 C.3        1 UNL1     0.1322
     17 O         -4.106387   1.153856   6.553866 O.3        1 UNL1     -0.4828
     18 C         -6.278448   2.051941   7.41309 C.ar        1 UNL1     -0.0067
     19 C         -6.560488   3.237005   8.123225 C.ar        1 UNL1     -0.0516
     20 C         -7.762257   3.926331   7.921873 C.ar        1 UNL1     -0.0198
     21 C         -8.691259   3.437985   7.020595 C.ar        1 UNL1     0.1169
     22 C         -8.427753   2.291833   6.281854 C.ar        1 UNL1     -0.0198
     23 C         -7.218099   1.612444   6.469536 C.ar        1 UNL1     -0.0516
     24 O         -9.866576   4.115414   6.878745 O.3        1 UNL1     -0.5068
     25 O         -6.641187   -1.818499   7.772885 O.2        1 UNL1     -0.2917
     26 O         -6.48254   -2.870316   5.29558 O.3        1 UNL1     -0.5058
     27 O         -0.464819   -0.074546   2.515615 O.3        1 UNL1     -0.3648
     28 O         0.213038   -1.986329   -0.468975 O.3        1 UNL1     -0.3841
     29 O         -2.404785   0.462531   -0.49952 O.3        1 UNL1     -0.3863
     30 O         -2.588585   -3.201907   -0.304016 O.3        1 UNL1     -0.3829
     31 H         0.362386   -1.794466   1.936309 H        1 UNL1     0.0937
     32 H         0.0   0.0   0.0 H        1 UNL1     0.0671
     33 H         -1.793321   -1.164035   -1.531087 H        1 UNL1     0.0649
     34 H         -3.923248   -1.645035   -0.221797 H        1 UNL1     0.0683
     35 H         -3.527566   -2.689137   1.961672 H        1 UNL1     0.1085
     36 H         -5.2683   -2.578384   3.071236 H        1 UNL1     0.0691
     37 H         -3.146782   1.009475   4.192227 H        1 UNL1     0.0691
     38 H         -4.231335   -0.4757   8.707824 H        1 UNL1     0.0385
     39 H         -5.833895   0.040521   9.268054 H        1 UNL1     0.0385
     40 H         -4.416466   1.936007   8.392055 H        1 UNL1     0.0789
     41 H         -5.851571   3.635899   8.842928 H        1 UNL1     0.0623
     42 H         -7.973265   4.832541   8.484253 H        1 UNL1     0.0654
     43 H         -9.141786   1.908975   5.562489 H        1 UNL1     0.0654
     44 H         -7.040837   0.726277   5.867763 H        1 UNL1     0.0623
     45 H         -9.809051   4.665646   6.08084 H        1 UNL1     0.2921
     46 H         -6.356947   -3.187052   6.204049 H        1 UNL1     0.2922
     47 H         0.422812   0.305549   2.456472 H        1 UNL1     0.2126
     48 H         0.135736   -1.823652   -1.428815 H        1 UNL1     0.2101
     49 H         -3.017776   0.602426   0.239713 H        1 UNL1     0.2100
     50 H         -2.128095   -3.658477   0.43029 H        1 UNL1     0.2102
@<TRIPOS>BOND
     1     1     2    1
     2     1     6    1
     3     2     3    1
     4     3     4    1
     5     3    29    1
     6     3    33    1
     7     4     5    1
     8     5     6    1
     9     5     7    1
    10     5    35    1
    11     7     8    1
    12     8     9   ar
    13     8    13   ar
    14     9    10   ar
    15     9    36    1
    16    10    11   ar
    17    10    26    1
    18    11    12   ar
    19    11    14    1
    20    12    13   ar
    21    12    17    1
    22    13    37    1
    23    14    15    1
    24    14    25    2
    25    15    16    1
    26    15    38    1
    27    15    39    1
    28    16    17    1
    29    16    18    1
    30    16    40    1
    31    18    19   ar
    32    18    23   ar
    33    19    20   ar
    34    19    41    1
    35    20    21   ar
    36    20    42    1
    37    21    22   ar
    38    21    24    1
    39    22    23   ar
    40    22    43    1
    41    23    44    1
    42    24    45    1
    43    26    46    1
    44    27    47    1
    45    28    48    1
    46    29    49    1
    47    30    50    1
    48     1    31    1
    49     1    27    1
    50     2    32    1
    51     2    28    1
    52     4    34    1
    53     4    30    1
