@<TRIPOS>MOLECULE
*****
 50 53 0 0 0
SMALL
GASTEIGER

@<TRIPOS>ATOM
     1 C         -1.218936   -0.889046   1.579429 C.3        1 UNL1     0.1889
     2 C         -0.452662   0.306042   0.951314 C.3        1 UNL1     0.1342
     3 C         0.634233   0.914729   1.850549 C.3        1 UNL1     0.1174
     4 C         0.261077   0.886323   3.334822 C.3        1 UNL1     0.1456
     5 C         -0.293238   -0.479945   3.778005 C.3        1 UNL1     0.2326
     6 O         -1.424968   -0.826395   2.983004 O.3        1 UNL1     -0.3076
     7 O         0.704719   -1.515955   3.823666 O.3        1 UNL1     -0.4605
     8 C         0.235263   -2.801411   4.025515 C.ar        1 UNL1     0.1310
     9 C         1.027537   -3.95271   4.089641 C.ar        1 UNL1     0.0226
     10 C         0.458043   -5.211497   4.315549 C.ar        1 UNL1     0.1343
     11 C         -0.916387   -5.346543   4.506718 C.ar        1 UNL1     0.1007
     12 C         -1.72249   -4.209684   4.404083 C.ar        1 UNL1     0.1389
     13 C         -1.149916   -2.944462   4.174297 C.ar        1 UNL1     0.0229
     14 C         -1.560977   -6.639975   4.831818 C.2        1 UNL1     0.1740
     15 C         -3.007458   -6.5642   5.22361 C.3        1 UNL1     0.0520
     16 C         -3.69781   -5.548615   4.323632 C.3        1 UNL1     0.1322
     17 O         -3.0962   -4.243116   4.467876 O.3        1 UNL1     -0.4828
     18 C         -3.857499   -6.016976   2.875233 C.ar        1 UNL1     -0.0067
     19 C         -4.666159   -5.272692   1.991873 C.ar        1 UNL1     -0.0516
     20 C         -4.871547   -5.698849   0.674236 C.ar        1 UNL1     -0.0198
     21 C         -4.281126   -6.868811   0.231043 C.ar        1 UNL1     0.1169
     22 C         -3.452507   -7.605676   1.06726 C.ar        1 UNL1     -0.0198
     23 C         -3.232089   -7.169961   2.379367 C.ar        1 UNL1     -0.0516
     24 O         -4.53448   -7.272294   -1.047008 O.3        1 UNL1     -0.5068
     25 O         -0.955173   -7.707867   4.86489 O.2        1 UNL1     -0.2917
     26 O         1.285968   -6.294827   4.365757 O.3        1 UNL1     -0.5058
     27 O         -0.71803   -2.154749   1.179585 O.3        1 UNL1     -0.3648
     28 O         -1.398914   1.350217   0.656338 O.3        1 UNL1     -0.3841
     29 O         1.904381   0.31495   1.587635 O.3        1 UNL1     -0.3863
     30 O         -0.737332   1.897692   3.591728 O.3        1 UNL1     -0.3829
     31 H         -2.234583   -0.859387   1.169966 H        1 UNL1     0.0937
     32 H         0.0   0.0   0.0 H        1 UNL1     0.0671
     33 H         0.747279   1.971631   1.571448 H        1 UNL1     0.0649
     34 H         1.135722   1.136995   3.945198 H        1 UNL1     0.0683
     35 H         -0.66168   -0.298503   4.795457 H        1 UNL1     0.1085
     36 H         2.107739   -3.906999   4.004814 H        1 UNL1     0.0691
     37 H         -1.79941   -2.075117   4.097543 H        1 UNL1     0.0691
     38 H         -3.050462   -6.255175   6.273458 H        1 UNL1     0.0385
     39 H         -3.454154   -7.560976   5.141884 H        1 UNL1     0.0385
     40 H         -4.720989   -5.422818   4.702841 H        1 UNL1     0.0789
     41 H         -5.14811   -4.355731   2.318304 H        1 UNL1     0.0623
     42 H         -5.50688   -5.122501   0.006264 H        1 UNL1     0.0654
     43 H         -2.973084   -8.515353   0.725862 H        1 UNL1     0.0654
     44 H         -2.570475   -7.7646   3.001875 H        1 UNL1     0.0623
     45 H         -4.676685   -6.483584   -1.595123 H        1 UNL1     0.2921
     46 H         1.679491   -6.360544   5.250196 H        1 UNL1     0.2922
     47 H         -0.024842   -2.447741   1.787456 H        1 UNL1     0.2126
     48 H         -1.797278   1.130707   -0.207869 H        1 UNL1     0.2101
     49 H         2.142084   0.440785   0.655189 H        1 UNL1     0.2100
     50 H         -0.587635   2.635301   2.964643 H        1 UNL1     0.2102
@<TRIPOS>BOND
     1     1     2    1
     2     1     6    1
     3     2     3    1
     4     3     4    1
     5     3    29    1
     6     3    33    1
     7     4     5    1
     8     5     6    1
     9     5     7    1
    10     5    35    1
    11     7     8    1
    12     8     9   ar
    13     8    13   ar
    14     9    10   ar
    15     9    36    1
    16    10    11   ar
    17    10    26    1
    18    11    12   ar
    19    11    14    1
    20    12    13   ar
    21    12    17    1
    22    13    37    1
    23    14    15    1
    24    14    25    2
    25    15    16    1
    26    15    38    1
    27    15    39    1
    28    16    17    1
    29    16    18    1
    30    16    40    1
    31    18    19   ar
    32    18    23   ar
    33    19    20   ar
    34    19    41    1
    35    20    21   ar
    36    20    42    1
    37    21    22   ar
    38    21    24    1
    39    22    23   ar
    40    22    43    1
    41    23    44    1
    42    24    45    1
    43    26    46    1
    44    27    47    1
    45    28    48    1
    46    29    49    1
    47    30    50    1
    48     1    31    1
    49     1    27    1
    50     2    32    1
    51     2    28    1
    52     4    34    1
    53     4    30    1
