@<TRIPOS>MOLECULE
*****
 50 53 0 0 0
SMALL
GASTEIGER

@<TRIPOS>ATOM
     1 C         -0.233809   -1.197165   1.811887 C.3        1 UNL1     0.1889
     2 C         -0.531458   -0.906111   0.316349 C.3        1 UNL1     0.1342
     3 C         -2.022335   -0.757045   -0.023546 C.3        1 UNL1     0.1174
     4 C         -2.916497   -1.675705   0.812908 C.3        1 UNL1     0.1456
     5 C         -2.559971   -1.642785   2.310296 C.3        1 UNL1     0.2326
     6 O         -1.190668   -1.996244   2.491805 O.3        1 UNL1     -0.3076
     7 O         -2.916072   -0.407512   2.9573 O.3        1 UNL1     -0.4605
     8 C         -3.278314   -0.503105   4.288905 C.ar        1 UNL1     0.1310
     9 C         -4.152614   -1.454944   4.824539 C.ar        1 UNL1     0.0226
     10 C         -4.444282   -1.480409   6.193547 C.ar        1 UNL1     0.1343
     11 C         -3.849602   -0.568633   7.064673 C.ar        1 UNL1     0.1007
     12 C         -3.00674   0.412391   6.535559 C.ar        1 UNL1     0.1389
     13 C         -2.715692   0.439438   5.15861 C.ar        1 UNL1     0.0229
     14 C         -4.056808   -0.60301   8.530973 C.2        1 UNL1     0.1740
     15 C         -3.170341   0.303545   9.333397 C.3        1 UNL1     0.0520
     16 C         -3.035899   1.626218   8.591495 C.3        1 UNL1     0.1322
     17 O         -2.45325   1.424428   7.285023 O.3        1 UNL1     -0.4828
     18 C         -4.315452   2.466138   8.592583 C.ar        1 UNL1     -0.0067
     19 C         -4.777128   3.026397   7.38379 C.ar        1 UNL1     -0.0516
     20 C         -5.917189   3.83852   7.357718 C.ar        1 UNL1     -0.0198
     21 C         -6.598603   4.10333   8.532187 C.ar        1 UNL1     0.1169
     22 C         -6.187836   3.538889   9.732818 C.ar        1 UNL1     -0.0198
     23 C         -5.058512   2.711762   9.756166 C.ar        1 UNL1     -0.0516
     24 O         -7.682486   4.929288   8.47395 O.3        1 UNL1     -0.5068
     25 O         -4.838409   -1.371161   9.085527 O.2        1 UNL1     -0.2917
     26 O         -5.305993   -2.433648   6.652213 O.3        1 UNL1     -0.5058
     27 O         0.104974   -0.038264   2.556844 O.3        1 UNL1     -0.3648
     28 O         -0.019511   -1.997075   -0.471315 O.3        1 UNL1     -0.3841
     29 O         -2.422529   0.613294   0.040863 O.3        1 UNL1     -0.3863
     30 O         -2.782809   -3.031504   0.333713 O.3        1 UNL1     -0.3829
     31 H         0.674663   -1.808833   1.836757 H        1 UNL1     0.0937
     32 H         0.0   0.0   0.0 H        1 UNL1     0.0671
     33 H         -2.15797   -1.051565   -1.073585 H        1 UNL1     0.0649
     34 H         -3.967176   -1.39266   0.685001 H        1 UNL1     0.0683
     35 H         -3.15883   -2.454126   2.742697 H        1 UNL1     0.1085
     36 H         -4.603416   -2.225488   4.20878 H        1 UNL1     0.0691
     37 H         -2.057258   1.214084   4.771465 H        1 UNL1     0.0691
     38 H         -2.198787   -0.191057   9.438173 H        1 UNL1     0.0385
     39 H         -3.598687   0.431385   10.333375 H        1 UNL1     0.0385
     40 H         -2.293266   2.227315   9.133434 H        1 UNL1     0.0789
     41 H         -4.254582   2.841062   6.449849 H        1 UNL1     0.0623
     42 H         -6.256324   4.274375   6.421219 H        1 UNL1     0.0654
     43 H         -6.722842   3.727485   10.655916 H        1 UNL1     0.0654
     44 H         -4.772144   2.279102   10.709918 H        1 UNL1     0.0623
     45 H         -7.385732   5.804096   8.17501 H        1 UNL1     0.2921
     46 H         -4.87207   -2.955232   7.345807 H        1 UNL1     0.2922
     47 H         0.843757   0.424939   2.137914 H        1 UNL1     0.2126
     48 H         0.94987   -1.996804   -0.352851 H        1 UNL1     0.2101
     49 H         -2.023421   1.10845   -0.692163 H        1 UNL1     0.2100
     50 H         -3.149635   -3.068039   -0.57393 H        1 UNL1     0.2102
@<TRIPOS>BOND
     1     1     2    1
     2     1     6    1
     3     2     3    1
     4     3     4    1
     5     3    29    1
     6     3    33    1
     7     4     5    1
     8     5     6    1
     9     5     7    1
    10     5    35    1
    11     7     8    1
    12     8     9   ar
    13     8    13   ar
    14     9    10   ar
    15     9    36    1
    16    10    11   ar
    17    10    26    1
    18    11    12   ar
    19    11    14    1
    20    12    13   ar
    21    12    17    1
    22    13    37    1
    23    14    15    1
    24    14    25    2
    25    15    16    1
    26    15    38    1
    27    15    39    1
    28    16    17    1
    29    16    18    1
    30    16    40    1
    31    18    19   ar
    32    18    23   ar
    33    19    20   ar
    34    19    41    1
    35    20    21   ar
    36    20    42    1
    37    21    22   ar
    38    21    24    1
    39    22    23   ar
    40    22    43    1
    41    23    44    1
    42    24    45    1
    43    26    46    1
    44    27    47    1
    45    28    48    1
    46    29    49    1
    47    30    50    1
    48     1    31    1
    49     1    27    1
    50     2    32    1
    51     2    28    1
    52     4    34    1
    53     4    30    1
