@<TRIPOS>MOLECULE
*****
 50 53 0 0 0
SMALL
GASTEIGER

@<TRIPOS>ATOM
     1 C         -0.390873   -1.380864   1.646583 C.3        1 UNL1     0.1889
     2 C         -0.492366   -0.968291   0.153458 C.3        1 UNL1     0.1342
     3 C         -1.92546   -0.894306   -0.395388 C.3        1 UNL1     0.1174
     4 C         -2.849675   -1.951497   0.213948 C.3        1 UNL1     0.1456
     5 C         -2.718075   -2.038417   1.745447 C.3        1 UNL1     0.2326
     6 O         -1.364414   -2.308669   2.102427 O.3        1 UNL1     -0.3076
     7 O         -3.268355   -0.900434   2.433565 O.3        1 UNL1     -0.4605
     8 C         -4.583172   -1.019337   2.846659 C.ar        1 UNL1     0.1310
     9 C         -5.635738   -1.512525   2.068088 C.ar        1 UNL1     0.0226
     10 C         -6.933558   -1.610025   2.583897 C.ar        1 UNL1     0.1343
     11 C         -7.205813   -1.238598   3.899861 C.ar        1 UNL1     0.1007
     12 C         -6.171339   -0.706227   4.67396 C.ar        1 UNL1     0.1389
     13 C         -4.867026   -0.605822   4.154233 C.ar        1 UNL1     0.0229
     14 C         -8.54036   -1.399106   4.522254 C.2        1 UNL1     0.1740
     15 C         -8.599477   -1.159962   6.002411 C.3        1 UNL1     0.0520
     16 C         -7.719527   0.037836   6.332449 C.3        1 UNL1     0.1322
     17 O         -6.350151   -0.209395   5.944177 O.3        1 UNL1     -0.4828
     18 C         -8.286615   1.372537   5.842849 C.ar        1 UNL1     -0.0067
     19 C         -7.671484   2.575759   6.245446 C.ar        1 UNL1     -0.0516
     20 C         -8.19278   3.814861   5.854498 C.ar        1 UNL1     -0.0198
     21 C         -9.330406   3.864181   5.068876 C.ar        1 UNL1     0.1169
     22 C         -9.939233   2.696059   4.628809 C.ar        1 UNL1     -0.0198
     23 C         -9.407436   1.456616   5.004347 C.ar        1 UNL1     -0.0516
     24 O         -9.831022   5.08939   4.739258 O.3        1 UNL1     -0.5068
     25 O         -9.532255   -1.780137   3.906263 O.2        1 UNL1     -0.2917
     26 O         -7.915614   -2.098377   1.772317 O.3        1 UNL1     -0.5058
     27 O         -0.263848   -0.278345   2.530383 O.3        1 UNL1     -0.3648
     28 O         0.219605   -1.938202   -0.63716 O.3        1 UNL1     -0.3841
     29 O         -2.446295   0.431079   -0.276144 O.3        1 UNL1     -0.3863
     30 O         -2.53267   -3.24135   -0.353041 O.3        1 UNL1     -0.3829
     31 H         0.553276   -1.925312   1.75721 H        1 UNL1     0.0937
     32 H         0.0   0.0   0.0 H        1 UNL1     0.0671
     33 H         -1.881819   -1.094602   -1.475063 H        1 UNL1     0.0649
     34 H         -3.89101   -1.733486   -0.047766 H        1 UNL1     0.0683
     35 H         -3.301795   -2.928717   2.010995 H        1 UNL1     0.1085
     36 H         -5.477891   -1.869804   1.056378 H        1 UNL1     0.0691
     37 H         -4.07947   -0.186858   4.776903 H        1 UNL1     0.0691
     38 H         -8.235922   -2.065897   6.499036 H        1 UNL1     0.0385
     39 H         -9.641984   -1.002142   6.299146 H        1 UNL1     0.0385
     40 H         -7.683714   0.121357   7.4271 H        1 UNL1     0.0789
     41 H         -6.782828   2.564007   6.869789 H        1 UNL1     0.0623
     42 H         -7.716284   4.735826   6.18128 H        1 UNL1     0.0654
     43 H         -10.821772   2.72308   4.000871 H        1 UNL1     0.0654
     44 H         -9.902529   0.564252   4.633653 H        1 UNL1     0.0623
     45 H         -9.487581   5.741258   5.371581 H        1 UNL1     0.2921
     46 H         -8.636861   -1.452145   1.712324 H        1 UNL1     0.2922
     47 H         -1.137823   0.041978   2.793863 H        1 UNL1     0.2126
     48 H         -0.329818   -2.114396   -1.425083 H        1 UNL1     0.2101
     49 H         -3.002234   0.497114   0.516551 H        1 UNL1     0.2100
     50 H         -2.005846   -3.739162   0.306013 H        1 UNL1     0.2102
@<TRIPOS>BOND
     1     1     2    1
     2     1     6    1
     3     2     3    1
     4     3     4    1
     5     3    29    1
     6     3    33    1
     7     4     5    1
     8     5     6    1
     9     5     7    1
    10     5    35    1
    11     7     8    1
    12     8     9   ar
    13     8    13   ar
    14     9    10   ar
    15     9    36    1
    16    10    11   ar
    17    10    26    1
    18    11    12   ar
    19    11    14    1
    20    12    13   ar
    21    12    17    1
    22    13    37    1
    23    14    15    1
    24    14    25    2
    25    15    16    1
    26    15    38    1
    27    15    39    1
    28    16    17    1
    29    16    18    1
    30    16    40    1
    31    18    19   ar
    32    18    23   ar
    33    19    20   ar
    34    19    41    1
    35    20    21   ar
    36    20    42    1
    37    21    22   ar
    38    21    24    1
    39    22    23   ar
    40    22    43    1
    41    23    44    1
    42    24    45    1
    43    26    46    1
    44    27    47    1
    45    28    48    1
    46    29    49    1
    47    30    50    1
    48     1    31    1
    49     1    27    1
    50     2    32    1
    51     2    28    1
    52     4    34    1
    53     4    30    1
