@<TRIPOS>MOLECULE
*****
 50 53 0 0 0
SMALL
GASTEIGER

@<TRIPOS>ATOM
     1 C         -1.537186   -0.568255   1.443936 C.3        1 UNL1     0.1889
     2 C         -0.666567   0.492809   0.718602 C.3        1 UNL1     0.1342
     3 C         0.170928   1.381297   1.651156 C.3        1 UNL1     0.1174
     4 C         -0.536448   1.685885   2.974017 C.3        1 UNL1     0.1456
     5 C         -1.155019   0.430304   3.615305 C.3        1 UNL1     0.2326
     6 O         -2.064849   -0.182624   2.704593 O.3        1 UNL1     -0.3076
     7 O         -0.177347   -0.48574   4.140987 O.3        1 UNL1     -0.4605
     8 C         -0.647895   -1.42234   5.043702 C.ar        1 UNL1     0.1310
     9 C         0.124919   -2.410527   5.663012 C.ar        1 UNL1     0.0226
     10 C         -0.442164   -3.304645   6.578911 C.ar        1 UNL1     0.1343
     11 C         -1.792172   -3.216962   6.916002 C.ar        1 UNL1     0.1007
     12 C         -2.582947   -2.260664   6.273388 C.ar        1 UNL1     0.1389
     13 C         -2.013075   -1.363456   5.350515 C.ar        1 UNL1     0.0229
     14 C         -2.424465   -4.081339   7.939337 C.2        1 UNL1     0.1740
     15 C         -3.821658   -3.703445   8.335059 C.3        1 UNL1     0.0520
     16 C         -4.581061   -3.286949   7.082942 C.3        1 UNL1     0.1322
     17 O         -3.943336   -2.156405   6.448713 O.3        1 UNL1     -0.4828
     18 C         -4.896706   -4.449336   6.138512 C.ar        1 UNL1     -0.0067
     19 C         -5.83399   -4.264156   5.101487 C.ar        1 UNL1     -0.0516
     20 C         -6.180766   -5.319721   4.249729 C.ar        1 UNL1     -0.0198
     21 C         -5.604102   -6.564391   4.428847 C.ar        1 UNL1     0.1169
     22 C         -4.653001   -6.769051   5.419987 C.ar        1 UNL1     -0.0198
     23 C         -4.292349   -5.708837   6.260184 C.ar        1 UNL1     -0.0516
     24 O         -5.994535   -7.578139   3.604058 O.3        1 UNL1     -0.5068
     25 O         -1.838711   -5.002968   8.501455 O.2        1 UNL1     -0.2917
     26 O         0.365968   -4.24583   7.146958 O.3        1 UNL1     -0.5058
     27 O         -0.935382   -1.851858   1.498538 O.3        1 UNL1     -0.3648
     28 O         -1.536152   1.360149   -0.032564 O.3        1 UNL1     -0.3841
     29 O         1.477516   0.832761   1.835729 O.3        1 UNL1     -0.3863
     30 O         -1.584461   2.651463   2.739459 O.3        1 UNL1     -0.3829
     31 H         -2.430204   -0.715158   0.82667 H        1 UNL1     0.0937
     32 H         0.0   0.0   0.0 H        1 UNL1     0.0671
     33 H         0.327562   2.34433   1.145436 H        1 UNL1     0.0649
     34 H         0.167935   2.142083   3.678381 H        1 UNL1     0.0683
     35 H         -1.752916   0.824965   4.446353 H        1 UNL1     0.1085
     36 H         1.19147   -2.494894   5.48561 H        1 UNL1     0.0691
     37 H         -2.650492   -0.628894   4.863061 H        1 UNL1     0.0691
     38 H         -3.751336   -2.875155   9.048162 H        1 UNL1     0.0385
     39 H         -4.293095   -4.552229   8.842101 H        1 UNL1     0.0385
     40 H         -5.557586   -2.904033   7.408972 H        1 UNL1     0.0789
     41 H         -6.307534   -3.299165   4.945929 H        1 UNL1     0.0623
     42 H         -6.913685   -5.167469   3.461274 H        1 UNL1     0.0654
     43 H         -4.184051   -7.735772   5.559441 H        1 UNL1     0.0654
     44 H         -3.53816   -5.901625   7.01707 H        1 UNL1     0.0623
     45 H         -6.231824   -7.198445   2.742522 H        1 UNL1     0.2921
     46 H         0.846484   -3.85233   7.892394 H        1 UNL1     0.2922
     47 H         -0.397531   -1.935732   2.298251 H        1 UNL1     0.2126
     48 H         -1.718908   0.908272   -0.878814 H        1 UNL1     0.2101
     49 H         1.483932   -0.100827   1.570842 H        1 UNL1     0.2100
     50 H         -1.305815   3.224002   1.994967 H        1 UNL1     0.2102
@<TRIPOS>BOND
     1     1     2    1
     2     1     6    1
     3     2     3    1
     4     3     4    1
     5     3    29    1
     6     3    33    1
     7     4     5    1
     8     5     6    1
     9     5     7    1
    10     5    35    1
    11     7     8    1
    12     8     9   ar
    13     8    13   ar
    14     9    10   ar
    15     9    36    1
    16    10    11   ar
    17    10    26    1
    18    11    12   ar
    19    11    14    1
    20    12    13   ar
    21    12    17    1
    22    13    37    1
    23    14    15    1
    24    14    25    2
    25    15    16    1
    26    15    38    1
    27    15    39    1
    28    16    17    1
    29    16    18    1
    30    16    40    1
    31    18    19   ar
    32    18    23   ar
    33    19    20   ar
    34    19    41    1
    35    20    21   ar
    36    20    42    1
    37    21    22   ar
    38    21    24    1
    39    22    23   ar
    40    22    43    1
    41    23    44    1
    42    24    45    1
    43    26    46    1
    44    27    47    1
    45    28    48    1
    46    29    49    1
    47    30    50    1
    48     1    31    1
    49     1    27    1
    50     2    32    1
    51     2    28    1
    52     4    34    1
    53     4    30    1
