@<TRIPOS>MOLECULE
*****
 50 53 0 0 0
SMALL
GASTEIGER

@<TRIPOS>ATOM
     1 C         -0.56747   -1.413188   1.565785 C.3        1 UNL1     0.1889
     2 C         -0.578489   -0.927672   0.091304 C.3        1 UNL1     0.1342
     3 C         -1.978919   -0.705188   -0.500104 C.3        1 UNL1     0.1174
     4 C         -3.011716   -1.70398   0.027969 C.3        1 UNL1     0.1456
     5 C         -2.944344   -1.86971   1.557139 C.3        1 UNL1     0.2326
     6 O         -1.632704   -2.272128   1.945118 O.3        1 UNL1     -0.3076
     7 O         -3.420422   -0.719782   2.279867 O.3        1 UNL1     -0.4605
     8 C         -4.017012   -0.975776   3.501373 C.ar        1 UNL1     0.1310
     9 C         -4.967047   -1.973215   3.746014 C.ar        1 UNL1     0.0226
     10 C         -5.501497   -2.165456   5.025587 C.ar        1 UNL1     0.1343
     11 C         -5.080792   -1.379663   6.097677 C.ar        1 UNL1     0.1007
     12 C         -4.163062   -0.35359   5.857407 C.ar        1 UNL1     0.1389
     13 C         -3.627795   -0.158774   4.570175 C.ar        1 UNL1     0.0229
     14 C         -5.549724   -1.594286   7.486271 C.2        1 UNL1     0.1740
     15 C         -4.829588   -0.809704   8.543336 C.3        1 UNL1     0.0520
     16 C         -4.572468   0.593232   8.01078 C.3        1 UNL1     0.1322
     17 O         -3.761557   0.547569   6.816038 O.3        1 UNL1     -0.4828
     18 C         -5.837008   1.446652   7.886936 C.ar        1 UNL1     -0.0067
     19 C         -6.0837   2.149437   6.689669 C.ar        1 UNL1     -0.0516
     20 C         -7.206004   2.976272   6.560289 C.ar        1 UNL1     -0.0198
     21 C         -8.083228   3.114178   7.621085 C.ar        1 UNL1     0.1169
     22 C         -7.885217   2.408947   8.801035 C.ar        1 UNL1     -0.0198
     23 C         -6.772931   1.567687   8.924141 C.ar        1 UNL1     -0.0516
     24 O         -9.144679   3.957614   7.471626 O.3        1 UNL1     -0.5068
     25 O         -6.413322   -2.413357   7.789269 O.2        1 UNL1     -0.2917
     26 O         -6.425211   -3.154836   5.197244 O.3        1 UNL1     -0.5058
     27 O         -0.379383   -0.366085   2.504393 O.3        1 UNL1     -0.3648
     28 O         0.076684   -1.919846   -0.720512 O.3        1 UNL1     -0.3841
     29 O         -2.388797   0.653868   -0.335485 O.3        1 UNL1     -0.3863
     30 O         -2.785312   -2.990139   -0.588653 O.3        1 UNL1     -0.3829
     31 H         0.322081   -2.041997   1.681439 H        1 UNL1     0.0937
     32 H         0.0   0.0   0.0 H        1 UNL1     0.0671
     33 H         -1.912906   -0.860533   -1.586027 H        1 UNL1     0.0649
     34 H         -4.020336   -1.384915   -0.257135 H        1 UNL1     0.0683
     35 H         -3.611255   -2.716784   1.761039 H        1 UNL1     0.1085
     36 H         -5.293476   -2.653213   2.966804 H        1 UNL1     0.0691
     37 H         -2.915674   0.647714   4.409072 H        1 UNL1     0.0691
     38 H         -3.889562   -1.328942   8.75844 H        1 UNL1     0.0385
     39 H         -5.432749   -0.80143   9.457615 H        1 UNL1     0.0385
     40 H         -3.944472   1.10975   8.749258 H        1 UNL1     0.0789
     41 H         -5.405283   2.065137   5.845694 H        1 UNL1     0.0623
     42 H         -7.378878   3.522256   5.636152 H        1 UNL1     0.0654
     43 H         -8.574029   2.497925   9.632619 H        1 UNL1     0.0654
     44 H         -6.655041   1.023684   9.856347 H        1 UNL1     0.0623
     45 H         -8.804826   4.852183   7.307425 H        1 UNL1     0.2921
     46 H         -6.120306   -3.766097   5.886305 H        1 UNL1     0.2922
     47 H         0.432364   0.120778   2.304665 H        1 UNL1     0.2126
     48 H         0.999764   -1.973321   -0.406194 H        1 UNL1     0.2101
     49 H         -1.854597   1.230874   -0.904246 H        1 UNL1     0.2100
     50 H         -2.974099   -2.902955   -1.545978 H        1 UNL1     0.2102
@<TRIPOS>BOND
     1     1     2    1
     2     1     6    1
     3     2     3    1
     4     3     4    1
     5     3    29    1
     6     3    33    1
     7     4     5    1
     8     5     6    1
     9     5     7    1
    10     5    35    1
    11     7     8    1
    12     8     9   ar
    13     8    13   ar
    14     9    10   ar
    15     9    36    1
    16    10    11   ar
    17    10    26    1
    18    11    12   ar
    19    11    14    1
    20    12    13   ar
    21    12    17    1
    22    13    37    1
    23    14    15    1
    24    14    25    2
    25    15    16    1
    26    15    38    1
    27    15    39    1
    28    16    17    1
    29    16    18    1
    30    16    40    1
    31    18    19   ar
    32    18    23   ar
    33    19    20   ar
    34    19    41    1
    35    20    21   ar
    36    20    42    1
    37    21    22   ar
    38    21    24    1
    39    22    23   ar
    40    22    43    1
    41    23    44    1
    42    24    45    1
    43    26    46    1
    44    27    47    1
    45    28    48    1
    46    29    49    1
    47    30    50    1
    48     1    31    1
    49     1    27    1
    50     2    32    1
    51     2    28    1
    52     4    34    1
    53     4    30    1
