@<TRIPOS>MOLECULE
*****
 50 53 0 0 0
SMALL
GASTEIGER

@<TRIPOS>ATOM
     1 C         -1.872422   0.102706   -1.119951 C.3        1 UNL1     0.1889
     2 C         -0.869083   0.665037   -0.077342 C.3        1 UNL1     0.1342
     3 C         -1.457487   0.88578   1.324628 C.3        1 UNL1     0.1174
     4 C         -2.920849   1.333565   1.290352 C.3        1 UNL1     0.1456
     5 C         -3.774118   0.48893   0.326563 C.3        1 UNL1     0.2326
     6 O         -3.217505   0.537433   -0.985191 O.3        1 UNL1     -0.3076
     7 O         -4.007448   -0.852454   0.793003 O.3        1 UNL1     -0.4605
     8 C         -4.247398   -1.801127   -0.184735 C.ar        1 UNL1     0.1310
     9 C         -4.197196   -3.186867   0.001019 C.ar        1 UNL1     0.0226
     10 C         -4.473715   -4.068542   -1.050689 C.ar        1 UNL1     0.1343
     11 C         -4.830768   -3.585362   -2.308819 C.ar        1 UNL1     0.1007
     12 C         -4.844257   -2.203654   -2.517346 C.ar        1 UNL1     0.1389
     13 C         -4.5636   -1.317361   -1.460394 C.ar        1 UNL1     0.0229
     14 C         -5.214474   -4.471001   -3.432459 C.2        1 UNL1     0.1740
     15 C         -5.782452   -3.781349   -4.638 C.3        1 UNL1     0.0520
     16 C         -4.988781   -2.505128   -4.881521 C.3        1 UNL1     0.1322
     17 O         -5.076263   -1.62154   -3.741921 O.3        1 UNL1     -0.4828
     18 C         -3.564603   -2.751833   -5.385086 C.ar        1 UNL1     -0.0067
     19 C         -3.368688   -3.274268   -6.680035 C.ar        1 UNL1     -0.0516
     20 C         -2.081797   -3.556084   -7.153801 C.ar        1 UNL1     -0.0198
     21 C         -0.985641   -3.327304   -6.34144 C.ar        1 UNL1     0.1169
     22 C         -1.144061   -2.782147   -5.073944 C.ar        1 UNL1     -0.0198
     23 C         -2.429506   -2.482973   -4.606843 C.ar        1 UNL1     -0.0516
     24 O         0.249248   -3.649366   -6.822817 O.3        1 UNL1     -0.5068
     25 O         -5.1576   -5.69664   -3.377148 O.2        1 UNL1     -0.2917
     26 O         -4.406272   -5.408756   -0.803987 O.3        1 UNL1     -0.5058
     27 O         -1.790483   -1.304391   -1.281666 O.3        1 UNL1     -0.3648
     28 O         -0.390068   1.939116   -0.546355 O.3        1 UNL1     -0.3841
     29 O         -1.249444   -0.263166   2.148506 O.3        1 UNL1     -0.3863
     30 O         -2.983769   2.715663   0.876185 O.3        1 UNL1     -0.3829
     31 H         -1.569905   0.504071   -2.093331 H        1 UNL1     0.0937
     32 H         0.0   0.0   0.0 H        1 UNL1     0.0671
     33 H         -0.888645   1.695022   1.803446 H        1 UNL1     0.0649
     34 H         -3.351868   1.280429   2.296235 H        1 UNL1     0.0683
     35 H         -4.732706   1.021242   0.28617 H        1 UNL1     0.1085
     36 H         -3.980638   -3.624928   0.969175 H        1 UNL1     0.0691
     37 H         -4.579706   -0.246063   -1.648951 H        1 UNL1     0.0691
     38 H         -6.833864   -3.558454   -4.427342 H        1 UNL1     0.0385
     39 H         -5.742289   -4.463603   -5.493977 H        1 UNL1     0.0385
     40 H         -5.49285   -1.959941   -5.690968 H        1 UNL1     0.0789
     41 H         -4.213429   -3.47125   -7.333688 H        1 UNL1     0.0623
     42 H         -1.944606   -3.969856   -8.149784 H        1 UNL1     0.0654
     43 H         -0.29143   -2.584942   -4.435163 H        1 UNL1     0.0654
     44 H         -2.515452   -2.048155   -3.615686 H        1 UNL1     0.0623
     45 H         0.885328   -2.990086   -6.50115 H        1 UNL1     0.2921
     46 H         -3.951746   -5.559917   0.039795 H        1 UNL1     0.2922
     47 H         -1.83387   -1.743444   -0.420731 H        1 UNL1     0.2126
     48 H         0.059371   2.364335   0.209242 H        1 UNL1     0.2101
     49 H         -1.867492   -0.967184   1.895191 H        1 UNL1     0.2100
     50 H         -2.594987   3.262354   1.590111 H        1 UNL1     0.2102
@<TRIPOS>BOND
     1     1     2    1
     2     1     6    1
     3     2     3    1
     4     3     4    1
     5     3    29    1
     6     3    33    1
     7     4     5    1
     8     5     6    1
     9     5     7    1
    10     5    35    1
    11     7     8    1
    12     8     9   ar
    13     8    13   ar
    14     9    10   ar
    15     9    36    1
    16    10    11   ar
    17    10    26    1
    18    11    12   ar
    19    11    14    1
    20    12    13   ar
    21    12    17    1
    22    13    37    1
    23    14    15    1
    24    14    25    2
    25    15    16    1
    26    15    38    1
    27    15    39    1
    28    16    17    1
    29    16    18    1
    30    16    40    1
    31    18    19   ar
    32    18    23   ar
    33    19    20   ar
    34    19    41    1
    35    20    21   ar
    36    20    42    1
    37    21    22   ar
    38    21    24    1
    39    22    23   ar
    40    22    43    1
    41    23    44    1
    42    24    45    1
    43    26    46    1
    44    27    47    1
    45    28    48    1
    46    29    49    1
    47    30    50    1
    48     1    31    1
    49     1    27    1
    50     2    32    1
    51     2    28    1
    52     4    34    1
    53     4    30    1
