@<TRIPOS>MOLECULE
*****
 50 53 0 0 0
SMALL
GASTEIGER

@<TRIPOS>ATOM
     1 C         -0.385082   -1.351522   1.672096 C.3        1 UNL1     0.1889
     2 C         -0.490117   -0.966329   0.171918 C.3        1 UNL1     0.1342
     3 C         -1.92435   -0.905188   -0.375533 C.3        1 UNL1     0.1174
     4 C         -2.845308   -1.952989   0.254598 C.3        1 UNL1     0.1456
     5 C         -2.710759   -2.011826   1.787177 C.3        1 UNL1     0.2326
     6 O         -1.355907   -2.272843   2.146503 O.3        1 UNL1     -0.3076
     7 O         -3.262107   -0.862641   2.455541 O.3        1 UNL1     -0.4605
     8 C         -3.791061   -1.088864   3.713539 C.ar        1 UNL1     0.1310
     9 C         -4.639528   -2.1467   4.057611 C.ar        1 UNL1     0.0226
     10 C         -5.1103   -2.300363   5.367063 C.ar        1 UNL1     0.1343
     11 C         -4.724498   -1.412605   6.370499 C.ar        1 UNL1     0.1007
     12 C         -3.910586   -0.328817   6.0303 C.ar        1 UNL1     0.1389
     13 C         -3.439495   -0.173024   4.713018 C.ar        1 UNL1     0.0229
     14 C         -5.124299   -1.575706   7.787436 C.2        1 UNL1     0.1740
     15 C         -4.440844   -0.664196   8.763953 C.3        1 UNL1     0.0520
     16 C         -4.328152   0.717869   8.135339 C.3        1 UNL1     0.1322
     17 O         -3.558079   0.664536   6.914187 O.3        1 UNL1     -0.4828
     18 C         -5.667158   1.448588   8.009503 C.ar        1 UNL1     -0.0067
     19 C         -6.016984   2.046689   6.781451 C.ar        1 UNL1     -0.0516
     20 C         -7.212234   2.762925   6.645999 C.ar        1 UNL1     -0.0198
     21 C         -8.060741   2.894224   7.730721 C.ar        1 UNL1     0.1169
     22 C         -7.75976   2.288335   8.94363 C.ar        1 UNL1     -0.0198
     23 C         -6.573418   1.556477   9.074138 C.ar        1 UNL1     -0.0516
     24 O         -9.197593   3.630901   7.571737 O.3        1 UNL1     -0.5068
     25 O         -5.900589   -2.444921   8.175152 O.2        1 UNL1     -0.2917
     26 O         -5.935801   -3.352684   5.636795 O.3        1 UNL1     -0.5058
     27 O         -0.258701   -0.232886   2.535502 O.3        1 UNL1     -0.3648
     28 O         0.222393   -1.949007   -0.602277 O.3        1 UNL1     -0.3841
     29 O         -2.447663   0.421099   -0.279405 O.3        1 UNL1     -0.3863
     30 O         -2.526706   -3.252287   -0.289469 O.3        1 UNL1     -0.3829
     31 H         0.560371   -1.89198   1.790843 H        1 UNL1     0.0937
     32 H         0.0   0.0   0.0 H        1 UNL1     0.0671
     33 H         -1.882256   -1.124965   -1.451473 H        1 UNL1     0.0649
     34 H         -3.887556   -1.74185   -0.009106 H        1 UNL1     0.0683
     35 H         -3.292185   -2.898324   2.06992 H        1 UNL1     0.1085
     36 H         -4.930803   -2.901953   3.335897 H        1 UNL1     0.0691
     37 H         -2.807976   0.679846   4.473666 H        1 UNL1     0.0691
     38 H         -3.45147   -1.084849   8.973043 H        1 UNL1     0.0385
     39 H         -5.010459   -0.648388   9.699404 H        1 UNL1     0.0385
     40 H         -3.723539   1.334068   8.814502 H        1 UNL1     0.0789
     41 H         -5.363586   1.965806   5.917635 H        1 UNL1     0.0623
     42 H         -7.465107   3.229604   5.697169 H        1 UNL1     0.0654
     43 H         -8.424354   2.372149   9.795217 H        1 UNL1     0.0654
     44 H         -6.375172   1.087543   10.033119 H        1 UNL1     0.0623
     45 H         -8.944752   4.537316   7.332571 H        1 UNL1     0.2921
     46 H         -5.553432   -3.889597   6.348785 H        1 UNL1     0.2922
     47 H         0.501569   0.306118   2.276036 H        1 UNL1     0.2126
     48 H         1.153676   -1.913465   -0.310419 H        1 UNL1     0.2101
     49 H         -1.986763   1.003788   -0.903776 H        1 UNL1     0.2100
     50 H         -2.750124   -3.242813   -1.243255 H        1 UNL1     0.2102
@<TRIPOS>BOND
     1     1     2    1
     2     1     6    1
     3     2     3    1
     4     3     4    1
     5     3    29    1
     6     3    33    1
     7     4     5    1
     8     5     6    1
     9     5     7    1
    10     5    35    1
    11     7     8    1
    12     8     9   ar
    13     8    13   ar
    14     9    10   ar
    15     9    36    1
    16    10    11   ar
    17    10    26    1
    18    11    12   ar
    19    11    14    1
    20    12    13   ar
    21    12    17    1
    22    13    37    1
    23    14    15    1
    24    14    25    2
    25    15    16    1
    26    15    38    1
    27    15    39    1
    28    16    17    1
    29    16    18    1
    30    16    40    1
    31    18    19   ar
    32    18    23   ar
    33    19    20   ar
    34    19    41    1
    35    20    21   ar
    36    20    42    1
    37    21    22   ar
    38    21    24    1
    39    22    23   ar
    40    22    43    1
    41    23    44    1
    42    24    45    1
    43    26    46    1
    44    27    47    1
    45    28    48    1
    46    29    49    1
    47    30    50    1
    48     1    31    1
    49     1    27    1
    50     2    32    1
    51     2    28    1
    52     4    34    1
    53     4    30    1
