@<TRIPOS>MOLECULE
*****
 50 53 0 0 0
SMALL
GASTEIGER

@<TRIPOS>ATOM
     1 C         -0.160143   -1.274873   1.766312 C.3        1 UNL1     0.1889
     2 C         -0.374135   -0.999644   0.253567 C.3        1 UNL1     0.1342
     3 C         -1.829841   -1.125242   -0.221417 C.3        1 UNL1     0.1174
     4 C         -2.602253   -2.22187   0.516082 C.3        1 UNL1     0.1456
     5 C         -2.39288   -2.168049   2.040428 C.3        1 UNL1     0.2326
     6 O         -1.002843   -2.261205   2.343722 O.3        1 UNL1     -0.3076
     7 O         -3.034788   -1.04304   2.667826 O.3        1 UNL1     -0.4605
     8 C         -3.488706   -1.246369   3.958618 C.ar        1 UNL1     0.1310
     9 C         -4.208667   -2.362555   4.398033 C.ar        1 UNL1     0.0226
     10 C         -4.610339   -2.484845   5.73355 C.ar        1 UNL1     0.1343
     11 C         -4.280827   -1.504152   6.668165 C.ar        1 UNL1     0.1007
     12 C         -3.597761   -0.365477   6.232707 C.ar        1 UNL1     0.1389
     13 C         -3.196293   -0.241509   4.889246 C.ar        1 UNL1     0.0229
     14 C         -4.606863   -1.622182   8.108277 C.2        1 UNL1     0.1740
     15 C         -3.985037   -0.589245   9.001543 C.3        1 UNL1     0.0520
     16 C         -4.040962   0.757112   8.292917 C.3        1 UNL1     0.1322
     17 O         -3.316909   0.709552   7.043695 O.3        1 UNL1     -0.4828
     18 C         -5.452574   1.339079   8.186193 C.ar        1 UNL1     -0.0067
     19 C         -5.903862   1.838639   6.947245 C.ar        1 UNL1     -0.0516
     20 C         -7.171392   2.420576   6.826077 C.ar        1 UNL1     -0.0198
     21 C         -7.992339   2.515338   7.935533 C.ar        1 UNL1     0.1169
     22 C         -7.58929   2.002283   9.161569 C.ar        1 UNL1     -0.0198
     23 C         -6.329143   1.403672   9.278827 C.ar        1 UNL1     -0.0516
     24 O         -9.20475   3.12248   7.787747 O.3        1 UNL1     -0.5068
     25 O         -5.273047   -2.541118   8.577573 O.2        1 UNL1     -0.2917
     26 O         -5.310899   -3.597656   6.097488 O.3        1 UNL1     -0.5058
     27 O         -0.116877   -0.096231   2.554802 O.3        1 UNL1     -0.3648
     28 O         0.40497   -1.949191   -0.497476 O.3        1 UNL1     -0.3841
     29 O         -2.489019   0.141875   -0.176352 O.3        1 UNL1     -0.3863
     30 O         -2.169571   -3.512442   0.033486 O.3        1 UNL1     -0.3829
     31 H         0.842749   -1.7039   1.867411 H        1 UNL1     0.0937
     32 H         0.0   0.0   0.0 H        1 UNL1     0.0671
     33 H         -1.812907   -1.407715   -1.283322 H        1 UNL1     0.0649
     34 H         -3.672114   -2.139126   0.294835 H        1 UNL1     0.0683
     35 H         -2.861333   -3.091014   2.404525 H        1 UNL1     0.1085
     36 H         -4.447223   -3.185239   3.732898 H        1 UNL1     0.0691
     37 H         -2.666597   0.655334   4.575257 H        1 UNL1     0.0691
     38 H         -2.949976   -0.893888   9.189607 H        1 UNL1     0.0385
     39 H         -4.516918   -0.575622   9.958985 H        1 UNL1     0.0385
     40 H         -3.478163   1.47103   8.909437 H        1 UNL1     0.0789
     41 H         -5.274755   1.784399   6.06354 H        1 UNL1     0.0623
     42 H         -7.503241   2.812884   5.867963 H        1 UNL1     0.0654
     43 H         -8.230239   2.057697   10.033362 H        1 UNL1     0.0654
     44 H         -6.051014   1.003977   10.249257 H        1 UNL1     0.0623
     45 H         -9.05559   4.04642   7.529285 H        1 UNL1     0.2921
     46 H         -4.848439   -4.048686   6.821446 H        1 UNL1     0.2922
     47 H         0.553788   0.511147   2.212515 H        1 UNL1     0.2126
     48 H         1.341975   -1.768986   -0.289437 H        1 UNL1     0.2101
     49 H         -2.128638   0.725937   -0.862494 H        1 UNL1     0.2100
     50 H         -2.440634   -3.58988   -0.904726 H        1 UNL1     0.2102
@<TRIPOS>BOND
     1     1     2    1
     2     1     6    1
     3     2     3    1
     4     3     4    1
     5     3    29    1
     6     3    33    1
     7     4     5    1
     8     5     6    1
     9     5     7    1
    10     5    35    1
    11     7     8    1
    12     8     9   ar
    13     8    13   ar
    14     9    10   ar
    15     9    36    1
    16    10    11   ar
    17    10    26    1
    18    11    12   ar
    19    11    14    1
    20    12    13   ar
    21    12    17    1
    22    13    37    1
    23    14    15    1
    24    14    25    2
    25    15    16    1
    26    15    38    1
    27    15    39    1
    28    16    17    1
    29    16    18    1
    30    16    40    1
    31    18    19   ar
    32    18    23   ar
    33    19    20   ar
    34    19    41    1
    35    20    21   ar
    36    20    42    1
    37    21    22   ar
    38    21    24    1
    39    22    23   ar
    40    22    43    1
    41    23    44    1
    42    24    45    1
    43    26    46    1
    44    27    47    1
    45    28    48    1
    46    29    49    1
    47    30    50    1
    48     1    31    1
    49     1    27    1
    50     2    32    1
    51     2    28    1
    52     4    34    1
    53     4    30    1
