@<TRIPOS>MOLECULE
*****
 50 53 0 0 0
SMALL
GASTEIGER

@<TRIPOS>ATOM
     1 C         -0.391089   -1.38095   1.64646 C.3        1 UNL1     0.1889
     2 C         -0.492475   -0.968251   0.153363 C.3        1 UNL1     0.1342
     3 C         -1.925539   -0.894071   -0.395538 C.3        1 UNL1     0.1174
     4 C         -2.849891   -1.951212   0.213678 C.3        1 UNL1     0.1456
     5 C         -2.718364   -2.038263   1.745176 C.3        1 UNL1     0.2326
     6 O         -1.364747   -2.308686   2.102192 O.3        1 UNL1     -0.3076
     7 O         -3.268553   -0.900275   2.433359 O.3        1 UNL1     -0.4605
     8 C         -3.810554   -1.150295   3.681258 C.ar        1 UNL1     0.1310
     9 C         -4.894958   -1.995792   3.93914 C.ar        1 UNL1     0.0226
     10 C         -5.360969   -2.197755   5.243727 C.ar        1 UNL1     0.1343
     11 C         -4.738144   -1.57704   6.325689 C.ar        1 UNL1     0.1007
     12 C         -3.680364   -0.698463   6.076721 C.ar        1 UNL1     0.1389
     13 C         -3.213666   -0.493502   4.764618 C.ar        1 UNL1     0.0229
     14 C         -5.135692   -1.820192   7.731743 C.2        1 UNL1     0.1740
     15 C         -4.219777   -1.248239   8.773624 C.3        1 UNL1     0.0520
     16 C         -3.768947   0.131361   8.313827 C.3        1 UNL1     0.1322
     17 O         -3.065125   0.047703   7.054977 O.3        1 UNL1     -0.4828
     18 C         -4.877292   1.186271   8.352044 C.ar        1 UNL1     -0.0067
     19 C         -4.55173   2.540995   8.135377 C.ar        1 UNL1     -0.0516
     20 C         -5.533224   3.536494   8.210304 C.ar        1 UNL1     -0.0198
     21 C         -6.839571   3.191776   8.507717 C.ar        1 UNL1     0.1169
     22 C         -7.19739   1.862705   8.693124 C.ar        1 UNL1     -0.0198
     23 C         -6.219575   0.865072   8.600038 C.ar        1 UNL1     -0.0516
     24 O         -7.760852   4.192401   8.609661 O.3        1 UNL1     -0.5068
     25 O         -6.100896   -2.508877   8.052023 O.2        1 UNL1     -0.2917
     26 O         -6.423375   -3.033912   5.427356 O.3        1 UNL1     -0.5058
     27 O         -0.263984   -0.278512   2.530351 O.3        1 UNL1     -0.3648
     28 O         0.219426   -1.938176   -0.6373 O.3        1 UNL1     -0.3841
     29 O         -2.446238   0.43136   -0.276213 O.3        1 UNL1     -0.3863
     30 O         -2.532999   -3.241055   -0.353397 O.3        1 UNL1     -0.3829
     31 H         0.552998   -1.925506   1.757085 H        1 UNL1     0.0937
     32 H         0.0   0.0   0.0 H        1 UNL1     0.0671
     33 H         -1.881874   -1.094288   -1.475226 H        1 UNL1     0.0649
     34 H         -3.891192   -1.73307   -0.048063 H        1 UNL1     0.0683
     35 H         -3.30219   -2.928522   2.010632 H        1 UNL1     0.1085
     36 H         -5.386276   -2.550657   3.1474 H        1 UNL1     0.0691
     37 H         -2.38932   0.196388   4.597293 H        1 UNL1     0.0691
     38 H         -3.367641   -1.928756   8.875057 H        1 UNL1     0.0385
     39 H         -4.745773   -1.213283   9.733772 H        1 UNL1     0.0385
     40 H         -3.011609   0.479521   9.02919 H        1 UNL1     0.0789
     41 H         -3.531849   2.838373   7.909411 H        1 UNL1     0.0623
     42 H         -5.267404   4.578895   8.052981 H        1 UNL1     0.0654
     43 H         -8.22028   1.580133   8.911659 H        1 UNL1     0.0654
     44 H         -6.536542   -0.163878   8.740174 H        1 UNL1     0.0623
     45 H         -7.290724   5.027328   8.766481 H        1 UNL1     0.2921
     46 H         -6.24693   -3.620801   6.17958 H        1 UNL1     0.2922
     47 H         -1.137935   0.041883   2.793818 H        1 UNL1     0.2126
     48 H         -0.329982   -2.114252   -1.42526 H        1 UNL1     0.2101
     49 H         -3.002202   0.497392   0.516464 H        1 UNL1     0.2100
     50 H         -2.006255   -3.738973   0.305641 H        1 UNL1     0.2102
@<TRIPOS>BOND
     1     1     2    1
     2     1     6    1
     3     2     3    1
     4     3     4    1
     5     3    29    1
     6     3    33    1
     7     4     5    1
     8     5     6    1
     9     5     7    1
    10     5    35    1
    11     7     8    1
    12     8     9   ar
    13     8    13   ar
    14     9    10   ar
    15     9    36    1
    16    10    11   ar
    17    10    26    1
    18    11    12   ar
    19    11    14    1
    20    12    13   ar
    21    12    17    1
    22    13    37    1
    23    14    15    1
    24    14    25    2
    25    15    16    1
    26    15    38    1
    27    15    39    1
    28    16    17    1
    29    16    18    1
    30    16    40    1
    31    18    19   ar
    32    18    23   ar
    33    19    20   ar
    34    19    41    1
    35    20    21   ar
    36    20    42    1
    37    21    22   ar
    38    21    24    1
    39    22    23   ar
    40    22    43    1
    41    23    44    1
    42    24    45    1
    43    26    46    1
    44    27    47    1
    45    28    48    1
    46    29    49    1
    47    30    50    1
    48     1    31    1
    49     1    27    1
    50     2    32    1
    51     2    28    1
    52     4    34    1
    53     4    30    1
