@<TRIPOS>MOLECULE
*****
 50 53 0 0 0
SMALL
GASTEIGER

@<TRIPOS>ATOM
     1 C         -0.332119   -1.328332   1.701774 C.3        1 UNL1     0.1889
     2 C         -0.462524   -0.97537   0.195669 C.3        1 UNL1     0.1342
     3 C         -1.903343   -0.962728   -0.337572 C.3        1 UNL1     0.1174
     4 C         -2.789732   -2.021943   0.322349 C.3        1 UNL1     0.1456
     5 C         -2.638161   -2.047314   1.854258 C.3        1 UNL1     0.2326
     6 O         -1.273288   -2.265486   2.204106 O.3        1 UNL1     -0.3076
     7 O         -3.21303   -0.900239   2.506228 O.3        1 UNL1     -0.4605
     8 C         -3.723029   -1.115744   3.773897 C.ar        1 UNL1     0.1310
     9 C         -4.539587   -2.188656   4.14725 C.ar        1 UNL1     0.0226
     10 C         -4.992833   -2.329104   5.464347 C.ar        1 UNL1     0.1343
     11 C         -4.620599   -1.412089   6.446368 C.ar        1 UNL1     0.1007
     12 C         -3.839233   -0.314073   6.076757 C.ar        1 UNL1     0.1389
     13 C         -3.385803   -0.171641   4.751787 C.ar        1 UNL1     0.0229
     14 C         -5.001564   -1.558003   7.870351 C.2        1 UNL1     0.1740
     15 C         -4.332699   -0.609931   8.821838 C.3        1 UNL1     0.0520
     16 C         -4.263109   0.762101   8.165603 C.3        1 UNL1     0.1322
     17 O         -3.504293   0.705272   6.937581 O.3        1 UNL1     -0.4828
     18 C         -5.622249   1.454693   8.039988 C.ar        1 UNL1     -0.0067
     19 C         -6.000244   2.019306   6.804454 C.ar        1 UNL1     -0.0516
     20 C         -7.215397   2.701023   6.667974 C.ar        1 UNL1     -0.0198
     21 C         -8.056067   2.83105   7.758934 C.ar        1 UNL1     0.1169
     22 C         -7.726844   2.25707   8.979999 C.ar        1 UNL1     -0.0198
     23 C         -6.52023   1.559409   9.11193 C.ar        1 UNL1     -0.0516
     24 O         -9.213628   3.534277   7.597915 O.3        1 UNL1     -0.5068
     25 O         -5.750539   -2.439644   8.282943 O.2        1 UNL1     -0.2917
     26 O         -5.787332   -3.397349   5.763027 O.3        1 UNL1     -0.5058
     27 O         -0.226746   -0.19013   2.542119 O.3        1 UNL1     -0.3648
     28 O         0.267951   -1.953846   -0.567023 O.3        1 UNL1     -0.3841
     29 O         -2.460683   0.350932   -0.261403 O.3        1 UNL1     -0.3863
     30 O         -2.442271   -3.322758   -0.199993 O.3        1 UNL1     -0.3829
     31 H         0.628504   -1.841274   1.820829 H        1 UNL1     0.0937
     32 H         0.0   0.0   0.0 H        1 UNL1     0.0671
     33 H         -1.866323   -1.202261   -1.409474 H        1 UNL1     0.0649
     34 H         -3.839834   -1.84352   0.065733 H        1 UNL1     0.0683
     35 H         -3.192954   -2.943141   2.160161 H        1 UNL1     0.1085
     36 H         -4.817999   -2.965253   3.443329 H        1 UNL1     0.0691
     37 H         -2.779604   0.692742   4.489378 H        1 UNL1     0.0691
     38 H         -3.330441   -1.000212   9.028443 H        1 UNL1     0.0385
     39 H         -4.893035   -0.590897   9.762817 H        1 UNL1     0.0385
     40 H         -3.668225   1.407145   8.826324 H        1 UNL1     0.0789
     41 H         -5.353706   1.938836   5.935452 H        1 UNL1     0.0623
     42 H         -7.490163   3.142284   5.71309 H        1 UNL1     0.0654
     43 H         -8.384774   2.339936   9.836837 H        1 UNL1     0.0654
     44 H         -6.299906   1.114652   10.077587 H        1 UNL1     0.0623
     45 H         -8.987374   4.442202   7.33869 H        1 UNL1     0.2921
     46 H         -5.383656   -3.910014   6.481102 H        1 UNL1     0.2922
     47 H         0.514587   0.364969   2.262566 H        1 UNL1     0.2126
     48 H         1.200868   -1.888093   -0.285823 H        1 UNL1     0.2101
     49 H         -2.021759   0.933275   -0.901728 H        1 UNL1     0.2100
     50 H         -2.675505   -3.337777   -1.151355 H        1 UNL1     0.2102
@<TRIPOS>BOND
     1     1     2    1
     2     1     6    1
     3     2     3    1
     4     3     4    1
     5     3    29    1
     6     3    33    1
     7     4     5    1
     8     5     6    1
     9     5     7    1
    10     5    35    1
    11     7     8    1
    12     8     9   ar
    13     8    13   ar
    14     9    10   ar
    15     9    36    1
    16    10    11   ar
    17    10    26    1
    18    11    12   ar
    19    11    14    1
    20    12    13   ar
    21    12    17    1
    22    13    37    1
    23    14    15    1
    24    14    25    2
    25    15    16    1
    26    15    38    1
    27    15    39    1
    28    16    17    1
    29    16    18    1
    30    16    40    1
    31    18    19   ar
    32    18    23   ar
    33    19    20   ar
    34    19    41    1
    35    20    21   ar
    36    20    42    1
    37    21    22   ar
    38    21    24    1
    39    22    23   ar
    40    22    43    1
    41    23    44    1
    42    24    45    1
    43    26    46    1
    44    27    47    1
    45    28    48    1
    46    29    49    1
    47    30    50    1
    48     1    31    1
    49     1    27    1
    50     2    32    1
    51     2    28    1
    52     4    34    1
    53     4    30    1
