@<TRIPOS>MOLECULE
*****
 50 53 0 0 0
SMALL
GASTEIGER

@<TRIPOS>ATOM
     1 C         1.341282   -0.216048   -1.710289 C.3        1 UNL1     0.1889
     2 C         1.023713   -0.342297   -0.195974 C.3        1 UNL1     0.1342
     3 C         1.990609   0.414782   0.727286 C.3        1 UNL1     0.1174
     4 C         3.428579   0.422568   0.202597 C.3        1 UNL1     0.1456
     5 C         3.50902   0.776569   -1.293591 C.3        1 UNL1     0.2326
     6 O         2.717164   -0.134849   -2.051977 O.3        1 UNL1     -0.3076
     7 O         3.208128   2.155906   -1.573261 O.3        1 UNL1     -0.4605
     8 C         2.994723   2.472288   -2.902881 C.ar        1 UNL1     0.1310
     9 C         3.979867   2.507744   -3.895622 C.ar        1 UNL1     0.0226
     10 C         3.66024   2.823846   -5.22145 C.ar        1 UNL1     0.1343
     11 C         2.34252   3.089142   -5.591686 C.ar        1 UNL1     0.1007
     12 C         1.356495   3.096992   -4.601497 C.ar        1 UNL1     0.1389
     13 C         1.678558   2.781713   -3.267966 C.ar        1 UNL1     0.0229
     14 C         1.935875   3.346376   -6.992623 C.2        1 UNL1     0.1740
     15 C         0.456836   3.389827   -7.241832 C.3        1 UNL1     0.0520
     16 C         -0.205134   4.126555   -6.085551 C.3        1 UNL1     0.1322
     17 O         0.047459   3.449702   -4.834497 O.3        1 UNL1     -0.4828
     18 C         0.086911   5.62888   -6.064252 C.ar        1 UNL1     -0.0067
     19 C         0.43822   6.248909   -4.847551 C.ar        1 UNL1     -0.0516
     20 C         0.665432   7.628868   -4.783922 C.ar        1 UNL1     -0.0198
     21 C         0.537597   8.39918   -5.925896 C.ar        1 UNL1     0.1169
     22 C         0.225684   7.81255   -7.145492 C.ar        1 UNL1     -0.0198
     23 C         0.016497   6.429897   -7.213081 C.ar        1 UNL1     -0.0516
     24 O         0.729404   9.745256   -5.817767 O.3        1 UNL1     -0.5068
     25 O         2.733615   3.441116   -7.921665 O.2        1 UNL1     -0.2917
     26 O         4.66769   2.842372   -6.141387 O.3        1 UNL1     -0.5058
     27 O         0.578777   0.784429   -2.366352 O.3        1 UNL1     -0.3648
     28 O         1.084649   -1.733785   0.168382 O.3        1 UNL1     -0.3841
     29 O         1.498166   1.72578   1.011745 O.3        1 UNL1     -0.3863
     30 O         4.012953   -0.882865   0.402702 O.3        1 UNL1     -0.3829
     31 H         1.01632   -1.152259   -2.177182 H        1 UNL1     0.0937
     32 H         0.0   0.0   0.0 H        1 UNL1     0.0671
     33 H         2.008069   -0.106571   1.694553 H        1 UNL1     0.0649
     34 H         4.031973   1.13515   0.775785 H        1 UNL1     0.0683
     35 H         4.556828   0.582915   -1.55527 H        1 UNL1     0.1085
     36 H         5.013176   2.256569   -3.682773 H        1 UNL1     0.0691
     37 H         0.892816   2.795803   -2.515701 H        1 UNL1     0.0691
     38 H         0.101385   2.35591   -7.306604 H        1 UNL1     0.0385
     39 H         0.269254   3.876971   -8.204788 H        1 UNL1     0.0385
     40 H         -1.291087   4.043624   -6.228197 H        1 UNL1     0.0789
     41 H         0.535953   5.667622   -3.935299 H        1 UNL1     0.0623
     42 H         0.924095   8.097013   -3.837378 H        1 UNL1     0.0654
     43 H         0.137797   8.404224   -8.048879 H        1 UNL1     0.0654
     44 H         -0.21519   6.0036   -8.184388 H        1 UNL1     0.0623
     45 H         0.71152   9.982964   -4.876549 H        1 UNL1     0.2921
     46 H         4.385165   2.369512   -6.940133 H        1 UNL1     0.2922
     47 H         -0.281269   0.429758   -2.631661 H        1 UNL1     0.2126
     48 H         1.949118   -1.871975   0.601198 H        1 UNL1     0.2101
     49 H         2.054069   2.389462   0.573234 H        1 UNL1     0.2100
     50 H         3.505457   -1.525947   -0.134519 H        1 UNL1     0.2102
@<TRIPOS>BOND
     1     1     2    1
     2     1     6    1
     3     2     3    1
     4     3     4    1
     5     3    29    1
     6     3    33    1
     7     4     5    1
     8     5     6    1
     9     5     7    1
    10     5    35    1
    11     7     8    1
    12     8     9   ar
    13     8    13   ar
    14     9    10   ar
    15     9    36    1
    16    10    11   ar
    17    10    26    1
    18    11    12   ar
    19    11    14    1
    20    12    13   ar
    21    12    17    1
    22    13    37    1
    23    14    15    1
    24    14    25    2
    25    15    16    1
    26    15    38    1
    27    15    39    1
    28    16    17    1
    29    16    18    1
    30    16    40    1
    31    18    19   ar
    32    18    23   ar
    33    19    20   ar
    34    19    41    1
    35    20    21   ar
    36    20    42    1
    37    21    22   ar
    38    21    24    1
    39    22    23   ar
    40    22    43    1
    41    23    44    1
    42    24    45    1
    43    26    46    1
    44    27    47    1
    45    28    48    1
    46    29    49    1
    47    30    50    1
    48     1    31    1
    49     1    27    1
    50     2    32    1
    51     2    28    1
    52     4    34    1
    53     4    30    1
