@<TRIPOS>MOLECULE
*****
 50 53 0 0 0
SMALL
GASTEIGER

@<TRIPOS>ATOM
     1 C         -0.370365   -1.397789   1.637016 C.3        1 UNL1     0.1889
     2 C         -0.487642   -0.971382   0.148942 C.3        1 UNL1     0.1342
     3 C         -1.926208   -0.897072   -0.385354 C.3        1 UNL1     0.1174
     4 C         -2.840979   -1.963159   0.222732 C.3        1 UNL1     0.1456
     5 C         -2.694307   -2.064192   1.751995 C.3        1 UNL1     0.2326
     6 O         -1.336371   -2.333204   2.093333 O.3        1 UNL1     -0.3076
     7 O         -3.241693   -0.93469   2.456206 O.3        1 UNL1     -0.4605
     8 C         -3.770706   -1.198377   3.706863 C.ar        1 UNL1     0.1310
     9 C         -4.613976   -2.269722   4.020577 C.ar        1 UNL1     0.0226
     10 C         -5.085237   -2.462001   5.324742 C.ar        1 UNL1     0.1343
     11 C         -4.705074   -1.600353   6.352789 C.ar        1 UNL1     0.1007
     12 C         -3.896499   -0.503353   6.043626 C.ar        1 UNL1     0.1389
     13 C         -3.424922   -0.308728   4.731693 C.ar        1 UNL1     0.0229
     14 C         -5.105423   -1.804671   7.764217 C.2        1 UNL1     0.1740
     15 C         -4.427708   -0.91699   8.766351 C.3        1 UNL1     0.0520
     16 C         -4.321616   0.482505   8.176337 C.3        1 UNL1     0.1322
     17 O         -3.550063   0.466982   6.955053 O.3        1 UNL1     -0.4828
     18 C         -5.664296   1.209459   8.069241 C.ar        1 UNL1     -0.0067
     19 C         -5.686933   2.57296   7.710677 C.ar        1 UNL1     -0.0516
     20 C         -6.893875   3.279748   7.649804 C.ar        1 UNL1     -0.0198
     21 C         -8.08153   2.637738   7.951672 C.ar        1 UNL1     0.1169
     22 C         -8.094964   1.287265   8.275523 C.ar        1 UNL1     -0.0198
     23 C         -6.890067   0.575624   8.318505 C.ar        1 UNL1     -0.0516
     24 O         -9.233111   3.36792   7.918545 O.3        1 UNL1     -0.5068
     25 O         -5.877545   -2.688302   8.126857 O.2        1 UNL1     -0.2917
     26 O         -5.905495   -3.525656   5.564322 O.3        1 UNL1     -0.5058
     27 O         -0.238474   -0.303298   2.530034 O.3        1 UNL1     -0.3648
     28 O         0.219878   -1.931294   -0.657712 O.3        1 UNL1     -0.3841
     29 O         -2.450266   0.425333   -0.248459 O.3        1 UNL1     -0.3863
     30 O         -2.525181   -3.246472   -0.359566 O.3        1 UNL1     -0.3829
     31 H         0.576612   -1.940038   1.733349 H        1 UNL1     0.0937
     32 H         0.0   0.0   0.0 H        1 UNL1     0.0671
     33 H         -1.89233   -1.08694   -1.467261 H        1 UNL1     0.0649
     34 H         -3.885511   -1.746224   -0.026854 H        1 UNL1     0.0683
     35 H         -3.272475   -2.958964   2.01464 H        1 UNL1     0.1085
     36 H         -4.900585   -3.006221   3.277916 H        1 UNL1     0.0691
     37 H         -2.79763   0.553707   4.516744 H        1 UNL1     0.0691
     38 H         -3.436359   -1.338121   8.964848 H        1 UNL1     0.0385
     39 H         -4.998326   -0.93003   9.701233 H        1 UNL1     0.0385
     40 H         -3.720905   1.082811   8.872972 H        1 UNL1     0.0789
     41 H         -4.767307   3.101936   7.478037 H        1 UNL1     0.0623
     42 H         -6.89701   4.333856   7.383612 H        1 UNL1     0.0654
     43 H         -9.020909   0.77096   8.499054 H        1 UNL1     0.0654
     44 H         -6.938836   -0.480678   8.564863 H        1 UNL1     0.0623
     45 H         -9.189952   4.040586   8.617382 H        1 UNL1     0.2921
     46 H         -5.532865   -4.067276   6.277909 H        1 UNL1     0.2922
     47 H         0.506555   0.255144   2.267483 H        1 UNL1     0.2126
     48 H         1.172027   -1.779174   -0.502779 H        1 UNL1     0.2101
     49 H         -2.134762   0.98248   -0.977732 H        1 UNL1     0.2100
     50 H         -2.782339   -3.220298   -1.304498 H        1 UNL1     0.2102
@<TRIPOS>BOND
     1     1     2    1
     2     1     6    1
     3     2     3    1
     4     3     4    1
     5     3    29    1
     6     3    33    1
     7     4     5    1
     8     5     6    1
     9     5     7    1
    10     5    35    1
    11     7     8    1
    12     8     9   ar
    13     8    13   ar
    14     9    10   ar
    15     9    36    1
    16    10    11   ar
    17    10    26    1
    18    11    12   ar
    19    11    14    1
    20    12    13   ar
    21    12    17    1
    22    13    37    1
    23    14    15    1
    24    14    25    2
    25    15    16    1
    26    15    38    1
    27    15    39    1
    28    16    17    1
    29    16    18    1
    30    16    40    1
    31    18    19   ar
    32    18    23   ar
    33    19    20   ar
    34    19    41    1
    35    20    21   ar
    36    20    42    1
    37    21    22   ar
    38    21    24    1
    39    22    23   ar
    40    22    43    1
    41    23    44    1
    42    24    45    1
    43    26    46    1
    44    27    47    1
    45    28    48    1
    46    29    49    1
    47    30    50    1
    48     1    31    1
    49     1    27    1
    50     2    32    1
    51     2    28    1
    52     4    34    1
    53     4    30    1
