@<TRIPOS>MOLECULE
*****
 50 53 0 0 0
SMALL
GASTEIGER

@<TRIPOS>ATOM
     1 C         -0.274467   -0.138678   -2.162462 C.3        1 UNL1     0.1889
     2 C         0.526077   -0.425331   -0.863655 C.3        1 UNL1     0.1342
     3 C         1.97242   0.092783   -0.874336 C.3        1 UNL1     0.1174
     4 C         2.622572   0.009248   -2.257608 C.3        1 UNL1     0.1456
     5 C         1.70668   0.544249   -3.373529 C.3        1 UNL1     0.2326
     6 O         0.470888   -0.166862   -3.370786 O.3        1 UNL1     -0.3076
     7 O         1.537412   1.973085   -3.340429 O.3        1 UNL1     -0.4605
     8 C         1.796731   2.586329   -2.127905 C.ar        1 UNL1     0.1310
     9 C         2.008827   1.924153   -0.913888 C.ar        1 UNL1     0.0226
     10 C         2.282172   2.635589   0.260439 C.ar        1 UNL1     0.1343
     11 C         2.373688   4.026707   0.244432 C.ar        1 UNL1     0.1007
     12 C         2.123295   4.701362   -0.953454 C.ar        1 UNL1     0.1389
     13 C         1.845858   3.985927   -2.133544 C.ar        1 UNL1     0.0229
     14 C         2.742288   4.823285   1.437643 C.2        1 UNL1     0.1740
     15 C         3.011844   6.278304   1.189032 C.3        1 UNL1     0.0520
     16 C         1.987001   6.794013   0.188183 C.3        1 UNL1     0.1322
     17 O         2.080676   6.072185   -1.059719 O.3        1 UNL1     -0.4828
     18 C         0.569436   6.898002   0.756004 C.ar        1 UNL1     -0.0067
     19 C         0.12142   8.128449   1.278972 C.ar        1 UNL1     -0.0516
     20 C         -1.151969   8.245778   1.848775 C.ar        1 UNL1     -0.0198
     21 C         -1.982134   7.14073   1.908132 C.ar        1 UNL1     0.1169
     22 C         -1.582097   5.923873   1.371412 C.ar        1 UNL1     -0.0198
     23 C         -0.315863   5.810895   0.784944 C.ar        1 UNL1     -0.0516
     24 O         -3.200511   7.283663   2.504393 O.3        1 UNL1     -0.5068
     25 O         2.902568   4.335254   2.553268 O.2        1 UNL1     -0.2917
     26 O         2.478185   1.930014   1.411668 O.3        1 UNL1     -0.5058
     27 O         -1.092767   1.017244   -2.078703 O.3        1 UNL1     -0.3648
     28 O         0.583019   -1.850544   -0.668132 O.3        1 UNL1     -0.3841
     29 O         2.046245   1.401973   -0.306265 O.3        1 UNL1     -0.3863
     30 O         2.948838   -1.367871   -2.545327 O.3        1 UNL1     -0.3829
     31 H         -0.984995   -0.964072   -2.280587 H        1 UNL1     0.0937
     32 H         0.0   0.0   0.0 H        1 UNL1     0.0671
     33 H         2.563466   -0.548973   -0.206104 H        1 UNL1     0.0649
     34 H         3.564085   0.569542   -2.262772 H        1 UNL1     0.0683
     35 H         2.229702   0.27126   -4.298625 H        1 UNL1     0.1085
     36 H         2.006433   0.841745   -0.846745 H        1 UNL1     0.0691
     37 H         1.653492   4.534764   -3.052927 H        1 UNL1     0.0691
     38 H         4.02907   6.363578   0.792159 H        1 UNL1     0.0385
     39 H         2.96956   6.818907   2.140735 H        1 UNL1     0.0385
     40 H         2.273765   7.823008   -0.067658 H        1 UNL1     0.0789
     41 H         0.75762   9.00834   1.252637 H        1 UNL1     0.0623
     42 H         -1.48136   9.197048   2.259382 H        1 UNL1     0.0654
     43 H         -2.230064   5.055953   1.399059 H        1 UNL1     0.0654
     44 H         -0.040192   4.847895   0.366041 H        1 UNL1     0.0623
     45 H         -3.394922   6.473482   3.002919 H        1 UNL1     0.2921
     46 H         2.222912   2.475133   2.17265 H        1 UNL1     0.2922
     47 H         -0.828824   1.56026   -1.322841 H        1 UNL1     0.2126
     48 H         -0.003373   -2.053031   0.086107 H        1 UNL1     0.2101
     49 H         2.921971   1.541789   0.087879 H        1 UNL1     0.2100
     50 H         2.144927   -1.906459   -2.392478 H        1 UNL1     0.2102
@<TRIPOS>BOND
     1     1     2    1
     2     1     6    1
     3     2     3    1
     4     3     4    1
     5     3    29    1
     6     3    33    1
     7     4     5    1
     8     5     6    1
     9     5     7    1
    10     5    35    1
    11     7     8    1
    12     8     9   ar
    13     8    13   ar
    14     9    10   ar
    15     9    36    1
    16    10    11   ar
    17    10    26    1
    18    11    12   ar
    19    11    14    1
    20    12    13   ar
    21    12    17    1
    22    13    37    1
    23    14    15    1
    24    14    25    2
    25    15    16    1
    26    15    38    1
    27    15    39    1
    28    16    17    1
    29    16    18    1
    30    16    40    1
    31    18    19   ar
    32    18    23   ar
    33    19    20   ar
    34    19    41    1
    35    20    21   ar
    36    20    42    1
    37    21    22   ar
    38    21    24    1
    39    22    23   ar
    40    22    43    1
    41    23    44    1
    42    24    45    1
    43    26    46    1
    44    27    47    1
    45    28    48    1
    46    29    49    1
    47    30    50    1
    48     1    31    1
    49     1    27    1
    50     2    32    1
    51     2    28    1
    52     4    34    1
    53     4    30    1
