@<TRIPOS>MOLECULE
*****
 50 53 0 0 0
SMALL
GASTEIGER

@<TRIPOS>ATOM
     1 C         -0.226636   -1.316572   1.728027 C.3        1 UNL1     0.1889
     2 C         -0.40802   -0.994251   0.220331 C.3        1 UNL1     0.1342
     3 C         -1.859055   -1.062565   -0.279965 C.3        1 UNL1     0.1174
     4 C         -2.675782   -2.154631   0.415353 C.3        1 UNL1     0.1456
     5 C         -2.48931   -2.148348   1.943604 C.3        1 UNL1     0.2326
     6 O         -1.107733   -2.291973   2.265294 O.3        1 UNL1     -0.3076
     7 O         -3.107075   -1.021625   2.591821 O.3        1 UNL1     -0.4605
     8 C         -3.587499   -1.245763   3.869507 C.ar        1 UNL1     0.1310
     9 C         -4.347623   -2.350931   4.267146 C.ar        1 UNL1     0.0226
     10 C         -4.774112   -2.496894   5.592553 C.ar        1 UNL1     0.1343
     11 C         -4.430274   -1.552263   6.558622 C.ar        1 UNL1     0.1007
     12 C         -3.706411   -0.423608   6.164995 C.ar        1 UNL1     0.1389
     13 C         -3.279949   -0.275746   4.831692 C.ar        1 UNL1     0.0229
     14 C         -4.782717   -1.699097   7.989838 C.2        1 UNL1     0.1740
     15 C         -4.144503   -0.71006   8.92045 C.3        1 UNL1     0.0520
     16 C         -4.148589   0.655998   8.248269 C.3        1 UNL1     0.1322
     17 O         -3.406392   0.620099   7.009348 O.3        1 UNL1     -0.4828
     18 C         -5.540183   1.283387   8.136138 C.ar        1 UNL1     -0.0067
     19 C         -5.956366   1.829702   6.904657 C.ar        1 UNL1     -0.0516
     20 C         -7.203731   2.453058   6.780276 C.ar        1 UNL1     -0.0198
     21 C         -8.039111   2.542842   7.879324 C.ar        1 UNL1     0.1169
     22 C         -7.671338   1.984862   9.096796 C.ar        1 UNL1     -0.0198
     23 C         -6.431789   1.345175   9.2167 C.ar        1 UNL1     -0.0516
     24 O         -9.230205   3.19042   7.729866 O.3        1 UNL1     -0.5068
     25 O         -5.483644   -2.609623   8.423573 O.2        1 UNL1     -0.2917
     26 O         -5.513536   -3.597246   5.91514 O.3        1 UNL1     -0.5058
     27 O         -0.16059   -0.16149   2.54913 O.3        1 UNL1     -0.3648
     28 O         0.354113   -1.946502   -0.544572 O.3        1 UNL1     -0.3841
     29 O         -2.480489   0.222378   -0.210157 O.3        1 UNL1     -0.3863
     30 O         -2.274416   -3.444307   -0.095853 O.3        1 UNL1     -0.3829
     31 H         0.761162   -1.778538   1.832529 H        1 UNL1     0.0937
     32 H         0.0   0.0   0.0 H        1 UNL1     0.0671
     33 H         -1.833626   -1.316681   -1.348842 H        1 UNL1     0.0649
     34 H         -3.738996   -2.033381   0.180243 H        1 UNL1     0.0683
     35 H         -2.991058   -3.066089   2.275083 H        1 UNL1     0.1085
     36 H         -4.600121   -3.147723   3.576142 H        1 UNL1     0.0691
     37 H         -2.71858   0.612677   4.550509 H        1 UNL1     0.0691
     38 H         -3.122208   -1.051071   9.115775 H        1 UNL1     0.0385
     39 H         -4.690989   -0.706058   9.86972 H        1 UNL1     0.0385
     40 H         -3.574526   1.335543   8.892621 H        1 UNL1     0.0789
     41 H         -5.315111   1.780164   6.029449 H        1 UNL1     0.0623
     42 H         -7.508263   2.880995   5.828361 H        1 UNL1     0.0654
     43 H         -8.324202   2.036254   9.959952 H        1 UNL1     0.0654
     44 H         -6.181366   0.911163   10.179907 H        1 UNL1     0.0623
     45 H         -9.049226   4.116019   7.49915 H        1 UNL1     0.2921
     46 H         -5.076487   -4.081523   6.633385 H        1 UNL1     0.2922
     47 H         0.533419   0.434175   2.23386 H        1 UNL1     0.2126
     48 H         1.292661   -1.800618   -0.317466 H        1 UNL1     0.2101
     49 H         -2.091782   0.813476   -0.874464 H        1 UNL1     0.2100
     50 H         -2.532634   -3.488116   -1.039843 H        1 UNL1     0.2102
@<TRIPOS>BOND
     1     1     2    1
     2     1     6    1
     3     2     3    1
     4     3     4    1
     5     3    29    1
     6     3    33    1
     7     4     5    1
     8     5     6    1
     9     5     7    1
    10     5    35    1
    11     7     8    1
    12     8     9   ar
    13     8    13   ar
    14     9    10   ar
    15     9    36    1
    16    10    11   ar
    17    10    26    1
    18    11    12   ar
    19    11    14    1
    20    12    13   ar
    21    12    17    1
    22    13    37    1
    23    14    15    1
    24    14    25    2
    25    15    16    1
    26    15    38    1
    27    15    39    1
    28    16    17    1
    29    16    18    1
    30    16    40    1
    31    18    19   ar
    32    18    23   ar
    33    19    20   ar
    34    19    41    1
    35    20    21   ar
    36    20    42    1
    37    21    22   ar
    38    21    24    1
    39    22    23   ar
    40    22    43    1
    41    23    44    1
    42    24    45    1
    43    26    46    1
    44    27    47    1
    45    28    48    1
    46    29    49    1
    47    30    50    1
    48     1    31    1
    49     1    27    1
    50     2    32    1
    51     2    28    1
    52     4    34    1
    53     4    30    1
