@<TRIPOS>MOLECULE
*****
 50 53 0 0 0
SMALL
GASTEIGER

@<TRIPOS>ATOM
     1 C         -0.370668   -1.397909   1.636844 C.3        1 UNL1     0.1889
     2 C         -0.487796   -0.971325   0.14881 C.3        1 UNL1     0.1342
     3 C         -1.92632   -0.896743   -0.385561 C.3        1 UNL1     0.1174
     4 C         -2.841285   -1.962759   0.222358 C.3        1 UNL1     0.1456
     5 C         -2.694716   -2.063977   1.751618 C.3        1 UNL1     0.2326
     6 O         -1.33684   -2.333229   2.093006 O.3        1 UNL1     -0.3076
     7 O         -3.241974   -0.934469   2.455919 O.3        1 UNL1     -0.4605
     8 C         -3.771205   -1.198233   3.706468 C.ar        1 UNL1     0.1310
     9 C         -4.614727   -2.269457   4.019916 C.ar        1 UNL1     0.0226
     10 C         -5.086198   -2.461831   5.32399 C.ar        1 UNL1     0.1343
     11 C         -4.706004   -1.600405   6.352211 C.ar        1 UNL1     0.1007
     12 C         -3.897173   -0.50352   6.043314 C.ar        1 UNL1     0.1389
     13 C         -3.425383   -0.308799   4.731472 C.ar        1 UNL1     0.0229
     14 C         -5.10658   -1.804848   7.763557 C.2        1 UNL1     0.1740
     15 C         -4.428825   -0.917443   8.765909 C.3        1 UNL1     0.0520
     16 C         -4.322379   0.482116   8.17611 C.3        1 UNL1     0.1322
     17 O         -3.550668   0.466616   6.954926 O.3        1 UNL1     -0.4828
     18 C         -5.664903   1.209349   8.06894 C.ar        1 UNL1     -0.0067
     19 C         -5.687225   2.572905   7.710569 C.ar        1 UNL1     -0.0516
     20 C         -6.894019   3.279939   7.649637 C.ar        1 UNL1     -0.0198
     21 C         -8.081841   2.638119   7.951255 C.ar        1 UNL1     0.1169
     22 C         -8.095583   1.287601   8.27491 C.ar        1 UNL1     -0.0198
     23 C         -6.890831   0.575718   8.31795 C.ar        1 UNL1     -0.0516
     24 O         -9.233274   3.368531   7.91808 O.3        1 UNL1     -0.5068
     25 O         -5.878924   -2.688379   8.125968 O.2        1 UNL1     -0.2917
     26 O         -5.906697   -3.525359   5.563308 O.3        1 UNL1     -0.5058
     27 O         -0.238665   -0.303534   2.529988 O.3        1 UNL1     -0.3648
     28 O         0.219627   -1.931256   -0.657907 O.3        1 UNL1     -0.3841
     29 O         -2.450188   0.425726   -0.248555 O.3        1 UNL1     -0.3863
     30 O         -2.525645   -3.246056   -0.360059 O.3        1 UNL1     -0.3829
     31 H         0.576222   -1.940309   1.733174 H        1 UNL1     0.0937
     32 H         0.0   0.0   0.0 H        1 UNL1     0.0671
     33 H         -1.892408   -1.0865   -1.467487 H        1 UNL1     0.0649
     34 H         -3.88577   -1.745642   -0.027266 H        1 UNL1     0.0683
     35 H         -3.273033   -2.958691   2.014134 H        1 UNL1     0.1085
     36 H         -4.901381   -3.005793   3.277111 H        1 UNL1     0.0691
     37 H         -2.797893   0.553544   4.516729 H        1 UNL1     0.0691
     38 H         -3.437584   -1.338797   8.964477 H        1 UNL1     0.0385
     39 H         -4.999569   -0.930506   9.700713 H        1 UNL1     0.0385
     40 H         -3.721643   1.082203   8.872911 H        1 UNL1     0.0789
     41 H         -4.767463   3.101734   7.478127 H        1 UNL1     0.0623
     42 H         -6.896913   4.334086   7.383596 H        1 UNL1     0.0654
     43 H         -9.021658   0.771446   8.498244 H        1 UNL1     0.0654
     44 H         -6.93984   -0.48061   8.56415 H        1 UNL1     0.0623
     45 H         -9.190076   4.041088   8.61702 H        1 UNL1     0.2921
     46 H         -5.534268   -4.067155   6.276867 H        1 UNL1     0.2922
     47 H         0.506463   0.254825   2.267539 H        1 UNL1     0.2126
     48 H         1.17179   -1.779295   -0.502902 H        1 UNL1     0.2101
     49 H         -2.134559   0.982904   -0.977749 H        1 UNL1     0.2100
     50 H         -2.782744   -3.219743   -1.305004 H        1 UNL1     0.2102
@<TRIPOS>BOND
     1     1     2    1
     2     1     6    1
     3     2     3    1
     4     3     4    1
     5     3    29    1
     6     3    33    1
     7     4     5    1
     8     5     6    1
     9     5     7    1
    10     5    35    1
    11     7     8    1
    12     8     9   ar
    13     8    13   ar
    14     9    10   ar
    15     9    36    1
    16    10    11   ar
    17    10    26    1
    18    11    12   ar
    19    11    14    1
    20    12    13   ar
    21    12    17    1
    22    13    37    1
    23    14    15    1
    24    14    25    2
    25    15    16    1
    26    15    38    1
    27    15    39    1
    28    16    17    1
    29    16    18    1
    30    16    40    1
    31    18    19   ar
    32    18    23   ar
    33    19    20   ar
    34    19    41    1
    35    20    21   ar
    36    20    42    1
    37    21    22   ar
    38    21    24    1
    39    22    23   ar
    40    22    43    1
    41    23    44    1
    42    24    45    1
    43    26    46    1
    44    27    47    1
    45    28    48    1
    46    29    49    1
    47    30    50    1
    48     1    31    1
    49     1    27    1
    50     2    32    1
    51     2    28    1
    52     4    34    1
    53     4    30    1
